Frap_303a_FDS674_M16_BO-1_v01d.fds
Generated by PyroSim - Version 2020.4.0902
11.11.2020 15:28:01

&HEAD CHID='Frap_303a_FDS674_M5_BO-1_v01d', TITLE='Flughafen Frankfurt, Flugsteig A-West, 303a. maschineller RA'/
&TIME T_END=1200.0/
&DUMP COLUMN_DUMP_LIMIT=.TRUE., DT_PL3D=60.0, DT_SLCF=1.0, NFRAMES=1200, WRITE_XYZ=.TRUE., PLOT3D_QUANTITY='VELOCITY','U-VELOCITY','V-VELOCITY','W-VELOCITY','VISIBILITY'/
&MISC Y_O2_INFTY=0.23, VISIBILITY_FACTOR=5.0/

&MESH ID='Mesh-02-merged-a', IJK=77,310,44, XB=5.75,15.375,-9.75,29.0,-0.25,5.25/
&MESH ID='Mesh-02-merged-b', IJK=103,310,44, XB=15.375,28.25,-9.75,29.0,-0.25,5.25/
&MESH ID='Mesh-05-merged', IJK=122,392,44, XB=28.25,43.5,-15.5,33.5,-0.25,5.25/
&MESH ID='Mesh-09-merged', IJK=134,392,44, XB=43.5,60.25,-15.5,33.5,-0.25,5.25/
&MESH ID='Mesh-14-merged', IJK=139,260,44, XB=60.25,77.625,1.0,33.5,-0.25,5.25/


&REAC ID='Mischbrand',
      FYI='Mischbrandlast 06B407-2011',
      FUEL='REAC_FUEL',
      C=1.0,
      H=1.2,
      O=0.254,
      N=0.0508,
      CRITICAL_FLAME_TEMPERATURE=1327.0,
      AUTO_IGNITION_TEMPERATURE=0.0,
      CO_YIELD=0.034,
      SOOT_YIELD=0.09,
      HEAT_OF_COMBUSTION=2.3632E4,
      RADIATIVE_FRACTION=0.3/

&PROP ID='Cleary Photoelectric P1',
      QUANTITY='CHAMBER OBSCURATION',
      ALPHA_E=1.8,
      BETA_E=-1.0,
      ALPHA_C=1.0,
      BETA_C=-0.8/
&CTRL ID='TIMER Tor', FUNCTION_TYPE='TIME_DELAY', DELAY=30.0, LATCH=.FALSE., INPUT_ID='latch'/
&CTRL ID='latch', FUNCTION_TYPE='ALL', LATCH=.TRUE., INPUT_ID='or'/
&CTRL ID='or', FUNCTION_TYPE='ANY', LATCH=.FALSE., INPUT_ID='SD_RS1','SD_RS2'/
&CTRL ID='Timer RS', FUNCTION_TYPE='TIME_DELAY', DELAY=30.0, LATCH=.FALSE., INPUT_ID='latch-2'/
&CTRL ID='latch-2', FUNCTION_TYPE='ALL', LATCH=.TRUE., INPUT_ID='or-2'/
&CTRL ID='or-2', FUNCTION_TYPE='ANY', LATCH=.FALSE., INPUT_ID='SD_RS1','SD_RS2','SD_RS3','SD_RS4'/
&DEVC ID='OD_2.5_Pos-00', QUANTITY='OPTICAL DENSITY', XYZ=15.936769,28.439147,2.51/
&DEVC ID='OD_2.5_Pos-01', QUANTITY='OPTICAL DENSITY', XYZ=31.436769,32.939147,2.51/
&DEVC ID='OD_2.5_Pos-02', QUANTITY='OPTICAL DENSITY', XYZ=68.309318,26.561696,2.51/
&DEVC ID='OD_2.5_Pos-03', QUANTITY='OPTICAL DENSITY', XYZ=76.186769,18.689147,2.51/
&DEVC ID='OD_2.5_Pos-04', QUANTITY='OPTICAL DENSITY', XYZ=65.686769,7.439147,2.51/
&DEVC ID='OD_2.5_Pos-05', QUANTITY='OPTICAL DENSITY', XYZ=44.436769,-13.810853,2.51/
&DEVC ID='OD_2.5_Pos-06', QUANTITY='OPTICAL DENSITY', XYZ=29.186769,4.439147,2.51/
&DEVC ID='OD_2.5_Pos-07', QUANTITY='OPTICAL DENSITY', XYZ=29.186769,21.439147,2.51/
&DEVC ID='OD_2.5_Pos-08', QUANTITY='OPTICAL DENSITY', XYZ=27.686769,4.189147,2.51/
&DEVC ID='OD_2.5_Pos-09', QUANTITY='OPTICAL DENSITY', XYZ=27.436769,21.439147,2.51/
&DEVC ID='OD_2.0_Pos-00', QUANTITY='OPTICAL DENSITY', XYZ=15.936769,28.439147,2.01/
&DEVC ID='OD_2.0_Pos-01', QUANTITY='OPTICAL DENSITY', XYZ=31.436769,32.939147,2.01/
&DEVC ID='OD_2.0_Pos-02', QUANTITY='OPTICAL DENSITY', XYZ=68.309318,26.561696,2.01/
&DEVC ID='OD_2.0_Pos-03', QUANTITY='OPTICAL DENSITY', XYZ=76.186769,18.689147,2.01/
&DEVC ID='OD_2.0_Pos-04', QUANTITY='OPTICAL DENSITY', XYZ=65.686769,7.439147,2.01/
&DEVC ID='OD_2.0_Pos-05', QUANTITY='OPTICAL DENSITY', XYZ=44.436769,-13.810853,2.01/
&DEVC ID='OD_2.0_Pos-06', QUANTITY='OPTICAL DENSITY', XYZ=29.186769,4.439147,2.01/
&DEVC ID='OD_2.0_Pos-07', QUANTITY='OPTICAL DENSITY', XYZ=29.186769,21.439147,2.01/
&DEVC ID='OD_2.0_Pos-08', QUANTITY='OPTICAL DENSITY', XYZ=27.686769,4.189147,2.01/
&DEVC ID='OD_2.0_Pos-09', QUANTITY='OPTICAL DENSITY', XYZ=27.436769,21.439147,2.01/
&DEVC ID='SD_Tor_1', PROP_ID='Cleary Photoelectric P1', XYZ=69.183363,22.938553,4.065/
&DEVC ID='SD_Tor_2', PROP_ID='Cleary Photoelectric P1', XYZ=62.929277,28.690238,4.065/
&DEVC ID='SD_RS1', PROP_ID='Cleary Photoelectric P1', XYZ=29.064382,23.065061,3.83/
&DEVC ID='SD_RS2', PROP_ID='Cleary Photoelectric P1', XYZ=29.170178,11.820712,3.83/
&DEVC ID='SD_RS3', PROP_ID='Cleary Photoelectric P1', XYZ=29.068208,1.936101,3.83/
&DEVC ID='SD_RS4', PROP_ID='Cleary Photoelectric P1', XYZ=29.063413,-6.554273,3.83/

&MATL ID='CONCRETE',
      FYI='Stahlbeton C30-C37 WU',
      SPECIFIC_HEAT=1.0,
      CONDUCTIVITY=2.1,
      DENSITY=2400.0/
&MATL ID='GYPSUM',
      FYI='Quintiere - Principles of fire behaviour',
      SPECIFIC_HEAT=0.84,
      CONDUCTIVITY=0.48,
      DENSITY=1440.0/
&MATL ID='CALCIUM SILICATE',
      FYI='NBSIR 88-3752 - NBS Multi-Room Validation',
      SPECIFIC_HEAT_RAMP='CALCIUM SILICATE_SPECIFIC_HEAT_RAMP',
      CONDUCTIVITY=0.12,
      DENSITY=720.0,
      EMISSIVITY=0.83/
&RAMP ID='CALCIUM SILICATE_SPECIFIC_HEAT_RAMP', T=20.0, F=1.25/
&RAMP ID='CALCIUM SILICATE_SPECIFIC_HEAT_RAMP', T=200.0, F=1.25/
&RAMP ID='CALCIUM SILICATE_SPECIFIC_HEAT_RAMP', T=300.0, F=1.33/
&RAMP ID='CALCIUM SILICATE_SPECIFIC_HEAT_RAMP', T=600.0, F=1.55/
&MATL ID='STEEL',
      FYI='Drysdale, Intro to Fire Dynamics - ATF NIST Multi-Floor Validation',
      SPECIFIC_HEAT=0.46,
      CONDUCTIVITY=45.8,
      DENSITY=7850.0,
      EMISSIVITY=0.95/
&MATL ID='GLASS',
      FYI='Verfahrenstechnik',
      SPECIFIC_HEAT=0.82,
      CONDUCTIVITY=0.75,
      DENSITY=2500.0/

&SURF ID='BETON',
      COLOR='GRAY 60',
      BACKING='VOID',
      MATL_ID(1,1)='CONCRETE',
      MATL_MASS_FRACTION(1,1)=1.0,
      THICKNESS(1)=0.1,
      GEOMETRY='CARTESIAN',
      LENGTH=0.0,
      WIDTH=0.0/
&SURF ID='Beton Stuetze Unterzug',
      COLOR='GRAY 40',
      BACKING='VOID',
      MATL_ID(1,1)='CONCRETE',
      MATL_MASS_FRACTION(1,1)=1.0,
      THICKNESS(1)=0.1,
      GEOMETRY='CARTESIAN',
      LENGTH=0.0,
      WIDTH=0.0/
&SURF ID='Gipsplatte 15mm',
      RGB=153,153,255,
      BACKING='VOID',
      MATL_ID(1,1)='GYPSUM',
      MATL_MASS_FRACTION(1,1)=1.0,
      THICKNESS(1)=0.015,
      GEOMETRY='CARTESIAN',
      LENGTH=0.0,
      WIDTH=0.0/
&SURF ID='Calciumsilikatplatte 15mm',
      RGB=146,202,166,
      BACKING='VOID',
      MATL_ID(1,1)='CALCIUM SILICATE',
      MATL_MASS_FRACTION(1,1)=1.0,
      THICKNESS(1)=0.015/
&SURF ID='Kanal_L',
      RGB=51,153,255,
      BACKING='VOID',
      MATL_ID(1,1)='STEEL',
      MATL_MASS_FRACTION(1,1)=1.0,
      THICKNESS(1)=5.0E-3,
      GEOMETRY='CARTESIAN',
      LENGTH=0.0,
      WIDTH=0.0/
&SURF ID='Kanal_ENTR',
      RGB=255,0,255,
      TRANSPARENCY=0.784314,
      BACKING='VOID',
      MATL_ID(1,1)='STEEL',
      MATL_MASS_FRACTION(1,1)=1.0,
      THICKNESS(1)=5.0E-3,
      GEOMETRY='CARTESIAN',
      LENGTH=0.0,
      WIDTH=0.0/
&SURF ID='ENT_1368m3h',
      COLOR='BLACK',
      VOLUME_FLOW=0.38,
      RAMP_V='ENT_1368m3h_RAMP_V'/
&RAMP ID='ENT_1368m3h_RAMP_V', T=0.0, F=0.0/
&RAMP ID='ENT_1368m3h_RAMP_V', T=120.0, F=0.0/
&RAMP ID='ENT_1368m3h_RAMP_V', T=180.0, F=1.0/
&RAMP ID='ENT_1368m3h_RAMP_V', T=3600.0, F=1.0/
&SURF ID='ENT_1656m3h',
      COLOR='BLACK',
      VOLUME_FLOW=0.46,
      RAMP_V='ENT_1656m3h_RAMP_V'/
&RAMP ID='ENT_1656m3h_RAMP_V', T=0.0, F=0.0/
&RAMP ID='ENT_1656m3h_RAMP_V', T=120.0, F=0.0/
&RAMP ID='ENT_1656m3h_RAMP_V', T=180.0, F=1.0/
&RAMP ID='ENT_1656m3h_RAMP_V', T=3600.0, F=1.0/
&SURF ID='ENT_1296m3h',
      COLOR='BLACK',
      VOLUME_FLOW=0.36,
      RAMP_V='ENT_1296m3h_RAMP_V'/
&RAMP ID='ENT_1296m3h_RAMP_V', T=0.0, F=0.0/
&RAMP ID='ENT_1296m3h_RAMP_V', T=120.0, F=0.0/
&RAMP ID='ENT_1296m3h_RAMP_V', T=180.0, F=1.0/
&RAMP ID='ENT_1296m3h_RAMP_V', T=3600.0, F=1.0/
&SURF ID='ENT_1512m3h',
      COLOR='BLACK',
      VOLUME_FLOW=0.42,
      RAMP_V='ENT_1512m3h_RAMP_V'/
&RAMP ID='ENT_1512m3h_RAMP_V', T=0.0, F=0.0/
&RAMP ID='ENT_1512m3h_RAMP_V', T=120.0, F=0.0/
&RAMP ID='ENT_1512m3h_RAMP_V', T=180.0, F=1.0/
&RAMP ID='ENT_1512m3h_RAMP_V', T=3600.0, F=1.0/
&SURF ID='ENT_1224m3h',
      COLOR='BLACK',
      VOLUME_FLOW=0.34,
      RAMP_V='ENT_1224m3h_RAMP_V'/
&RAMP ID='ENT_1224m3h_RAMP_V', T=0.0, F=0.0/
&RAMP ID='ENT_1224m3h_RAMP_V', T=120.0, F=0.0/
&RAMP ID='ENT_1224m3h_RAMP_V', T=180.0, F=1.0/
&RAMP ID='ENT_1224m3h_RAMP_V', T=3600.0, F=1.0/
&SURF ID='ENT_1872m3h',
      COLOR='BLACK',
      VOLUME_FLOW=0.52,
      RAMP_V='ENT_1872m3h_RAMP_V'/
&RAMP ID='ENT_1872m3h_RAMP_V', T=0.0, F=0.0/
&RAMP ID='ENT_1872m3h_RAMP_V', T=120.0, F=0.0/
&RAMP ID='ENT_1872m3h_RAMP_V', T=180.0, F=1.0/
&RAMP ID='ENT_1872m3h_RAMP_V', T=3600.0, F=1.0/
&SURF ID='ENT_2160m3h',
      COLOR='BLACK',
      VOLUME_FLOW=0.6,
      RAMP_V='ENT_2160m3h_RAMP_V'/
&RAMP ID='ENT_2160m3h_RAMP_V', T=0.0, F=0.0/
&RAMP ID='ENT_2160m3h_RAMP_V', T=120.0, F=0.0/
&RAMP ID='ENT_2160m3h_RAMP_V', T=180.0, F=1.0/
&RAMP ID='ENT_2160m3h_RAMP_V', T=3600.0, F=1.0/
&SURF ID='ENT_1728m3h',
      COLOR='BLACK',
      VOLUME_FLOW=0.48,
      RAMP_V='ENT_1728m3h_RAMP_V'/
&RAMP ID='ENT_1728m3h_RAMP_V', T=0.0, F=0.0/
&RAMP ID='ENT_1728m3h_RAMP_V', T=120.0, F=0.0/
&RAMP ID='ENT_1728m3h_RAMP_V', T=180.0, F=1.0/
&RAMP ID='ENT_1728m3h_RAMP_V', T=3600.0, F=1.0/
&SURF ID='ENT_1080m3h',
      COLOR='BLACK',
      VOLUME_FLOW=0.3,
      RAMP_V='ENT_1080m3h_RAMP_V'/
&RAMP ID='ENT_1080m3h_RAMP_V', T=0.0, F=0.0/
&RAMP ID='ENT_1080m3h_RAMP_V', T=120.0, F=0.0/
&RAMP ID='ENT_1080m3h_RAMP_V', T=180.0, F=1.0/
&RAMP ID='ENT_1080m3h_RAMP_V', T=3600.0, F=1.0/
&SURF ID='ENT_288m3h',
      COLOR='BLACK',
      VOLUME_FLOW=0.08,
      RAMP_V='ENT_288m3h_RAMP_V'/
&RAMP ID='ENT_288m3h_RAMP_V', T=0.0, F=0.0/
&RAMP ID='ENT_288m3h_RAMP_V', T=120.0, F=0.0/
&RAMP ID='ENT_288m3h_RAMP_V', T=180.0, F=1.0/
&RAMP ID='ENT_288m3h_RAMP_V', T=3600.0, F=1.0/
&SURF ID='ENT_720m3h',
      COLOR='BLACK',
      VOLUME_FLOW=0.2,
      RAMP_V='ENT_720m3h_RAMP_V'/
&RAMP ID='ENT_720m3h_RAMP_V', T=0.0, F=0.0/
&RAMP ID='ENT_720m3h_RAMP_V', T=120.0, F=0.0/
&RAMP ID='ENT_720m3h_RAMP_V', T=180.0, F=1.0/
&RAMP ID='ENT_720m3h_RAMP_V', T=3600.0, F=1.0/
&SURF ID='ENT_936m3h',
      COLOR='BLACK',
      VOLUME_FLOW=0.26,
      RAMP_V='ENT_936m3h_RAMP_V'/
&RAMP ID='ENT_936m3h_RAMP_V', T=0.0, F=0.0/
&RAMP ID='ENT_936m3h_RAMP_V', T=120.0, F=0.0/
&RAMP ID='ENT_936m3h_RAMP_V', T=180.0, F=1.0/
&RAMP ID='ENT_936m3h_RAMP_V', T=3600.0, F=1.0/
&SURF ID='ENT_864m3h',
      COLOR='BLACK',
      VOLUME_FLOW=0.24,
      RAMP_V='ENT_864m3h_RAMP_V'/
&RAMP ID='ENT_864m3h_RAMP_V', T=0.0, F=0.0/
&RAMP ID='ENT_864m3h_RAMP_V', T=120.0, F=0.0/
&RAMP ID='ENT_864m3h_RAMP_V', T=180.0, F=1.0/
&RAMP ID='ENT_864m3h_RAMP_V', T=3600.0, F=1.0/
&SURF ID='ENT_1152m3h',
      COLOR='BLACK',
      VOLUME_FLOW=0.32,
      RAMP_V='ENT_1152m3h_RAMP_V'/
&RAMP ID='ENT_1152m3h_RAMP_V', T=0.0, F=0.0/
&RAMP ID='ENT_1152m3h_RAMP_V', T=120.0, F=0.0/
&RAMP ID='ENT_1152m3h_RAMP_V', T=180.0, F=1.0/
&RAMP ID='ENT_1152m3h_RAMP_V', T=3600.0, F=1.0/
&SURF ID='ENT_1008m3h',
      COLOR='BLACK',
      VOLUME_FLOW=0.28,
      RAMP_V='ENT_1008m3h_RAMP_V'/
&RAMP ID='ENT_1008m3h_RAMP_V', T=0.0, F=0.0/
&RAMP ID='ENT_1008m3h_RAMP_V', T=120.0, F=0.0/
&RAMP ID='ENT_1008m3h_RAMP_V', T=180.0, F=1.0/
&RAMP ID='ENT_1008m3h_RAMP_V', T=3600.0, F=1.0/
&SURF ID='ENT_680m3h',
      COLOR='BLACK',
      VOLUME_FLOW=0.1889,
      RAMP_V='ENT_680m3h_RAMP_V'/
&RAMP ID='ENT_680m3h_RAMP_V', T=0.0, F=0.0/
&RAMP ID='ENT_680m3h_RAMP_V', T=120.0, F=0.0/
&RAMP ID='ENT_680m3h_RAMP_V', T=180.0, F=1.0/
&RAMP ID='ENT_680m3h_RAMP_V', T=3600.0, F=1.0/
&SURF ID='GLAS',
      RGB=0,180,213,
      TRANSPARENCY=0.701961,
      BACKING='VOID',
      MATL_ID(1,1)='GLASS',
      MATL_MASS_FRACTION(1,1)=1.0,
      THICKNESS(1)=0.01,
      GEOMETRY='CARTESIAN',
      LENGTH=0.0,
      WIDTH=0.0/
&SURF ID='Burner alt',
      COLOR='RED',
      HRRPUA=583.53,
      TAU_Q=-370.0/

&OBST ID='Boden', XB=-14.5,29.0,-19.5,29.25,-0.25,0.0, COLOR='INVISIBLE', SURF_ID='BETON'/ 
&OBST ID='Decke_UK 5.0', XB=-14.5,29.0,-19.5,29.25,5.0,5.25, COLOR='INVISIBLE', SURF_ID='BETON'/ 
&OBST ID='St_[1][1][1][1]', XB=43.25,43.75,30.25,30.75,0.0,5.0, SURF_ID='Beton Stuetze Unterzug'/ 
&OBST ID='St_[1][1][1][1]', XB=43.0,43.5,18.75,19.25,0.0,5.0, SURF_ID='Beton Stuetze Unterzug'/ 
&OBST ID='St_[1][1][1][1]', XB=43.0,43.5,7.0,7.5,0.0,5.0, SURF_ID='Beton Stuetze Unterzug'/ 
&OBST ID='St_[1][1][1][1]', XB=48.5,49.0,1.5,2.0,0.0,5.0, SURF_ID='Beton Stuetze Unterzug'/ 
&OBST ID='St_[1][1][1][1]', XB=53.25,53.75,6.25,6.75,0.0,5.0, SURF_ID='Beton Stuetze Unterzug'/ 
&OBST ID='St_[1][1][1][1]', XB=57.5,58.0,18.75,19.25,0.0,5.0, SURF_ID='Beton Stuetze Unterzug'/ 
&OBST ID='St_[1][1][1][1]', XB=72.0,72.5,18.75,19.25,0.0,5.0, SURF_ID='Beton Stuetze Unterzug'/ 
&OBST ID='St_[1][1][1][1]', XB=53.25,53.75,-3.5,-3.0,0.0,5.0, SURF_ID='Beton Stuetze Unterzug'/ 
&OBST ID='St_[1][1][1][1]', XB=58.25,58.75,1.25,1.75,0.0,5.0, SURF_ID='Beton Stuetze Unterzug'/ 
&OBST ID='St_[1][1][1][1]', XB=63.5,64.0,6.75,7.25,0.0,5.0, SURF_ID='Beton Stuetze Unterzug'/ 
&OBST ID='St_[1][1][1][1]', XB=48.0,48.5,-9.0,-8.5,0.0,5.0, SURF_ID='Beton Stuetze Unterzug'/ 
&OBST ID='St_[1][1][1][1]', XB=57.5,58.0,30.25,30.75,0.0,5.0, SURF_ID='Beton Stuetze Unterzug'/ 
&OBST ID='St_[1][1][1][1]', XB=72.0,72.5,28.5,29.0,0.0,5.0, SURF_ID='Beton Stuetze Unterzug'/ 
&OBST ID='St_[1][1][1][1]', XB=28.75,29.25,18.75,19.25,0.0,5.0, SURF_ID='Beton Stuetze Unterzug'/ 
&OBST ID='st_6', XB=-9.0,-8.5,5.5,6.0,0.0,5.0, SURF_ID='Beton Stuetze Unterzug'/ 
&OBST ID='st_6', XB=-0.5,0.0,10.0,10.5,0.0,5.0, SURF_ID='Beton Stuetze Unterzug'/ 
&OBST ID='St_204a[1]', XB=14.75,15.25,-12.75,-12.25,0.0,5.0, SURF_ID='Beton Stuetze Unterzug'/ 
&OBST ID='st_4', XB=8.0,8.5,5.5,6.0,0.0,5.0, SURF_ID='Beton Stuetze Unterzug'/ 
&OBST ID='st_3', XB=8.0,8.5,-6.0,-5.5,0.0,5.0, SURF_ID='Beton Stuetze Unterzug'/ 
&OBST ID='St_1', XB=-9.0,-8.5,-6.0,-5.5,0.0,5.0, SURF_ID='Beton Stuetze Unterzug'/ 
&OBST ID='st_2', XB=-0.5,0.0,-10.5,-10.0,0.0,5.0, SURF_ID='Beton Stuetze Unterzug'/ 
&OBST ID='St_[1][1]', XB=-0.25,0.25,19.75,20.25,0.0,5.0, SURF_ID='Beton Stuetze Unterzug'/ 
&OBST ID='St_[1][1][1]', XB=14.25,14.75,18.75,19.25,0.0,5.0, SURF_ID='Beton Stuetze Unterzug'/ 
&OBST ID='St_[1][1][1]', XB=-15.75,-15.25,41.12,41.62,0.0,5.0, SURF_ID='Beton Stuetze Unterzug'/ 
&OBST ID='St_[1][1][1][1]', XB=17.75,18.25,6.75,7.25,0.0,5.0, SURF_ID='Beton Stuetze Unterzug'/ 
&OBST ID='St_[1][1][1][1][1]', XB=17.75,18.25,-4.0,-3.5,0.0,5.0, SURF_ID='Beton Stuetze Unterzug'/ 
&OBST ID='St_[1][1][1][1]', XB=28.75,29.25,6.75,7.25,0.0,5.0, SURF_ID='Beton Stuetze Unterzug'/ 
&OBST ID='St_[1][1][1][1][1]', XB=28.75,29.25,-4.0,-3.5,0.0,5.0, SURF_ID='Beton Stuetze Unterzug'/ 
&OBST ID='Wall_in', XB=3.25,3.75,-19.25,-18.75,0.0,5.0, SURF_ID='Beton Stuetze Unterzug'/ 
&OBST ID='St_[1][1][1][1]', XB=43.0,43.5,-3.75,-3.25,0.0,5.0, SURF_ID='Beton Stuetze Unterzug'/ 
&OBST ID='St_[1][1][1][1]', XB=36.25,36.75,-10.5,-10.0,0.0,5.0, SURF_ID='Beton Stuetze Unterzug'/ 
&OBST ID='Wall_8', XB=-26.0,-25.5,3.5,4.0,0.0,5.0, SURF_ID='BETON'/ 
&OBST ID='Wall_8', XB=-25.75,-25.25,3.25,3.5,0.0,5.0, SURF_ID='BETON'/ 
&OBST ID='Wall_8', XB=-25.75,-25.0,3.0,3.25,0.0,5.0, SURF_ID='BETON'/ 
&OBST ID='Wall_8', XB=-25.5,-25.0,2.75,3.0,0.0,5.0, SURF_ID='BETON'/ 
&OBST ID='Wall_8', XB=-25.5,-24.75,2.5,2.75,0.0,5.0, SURF_ID='BETON'/ 
&OBST ID='Wall_8', XB=-25.25,-24.75,2.25,2.5,0.0,5.0, SURF_ID='BETON'/ 
&OBST ID='Wall_8', XB=-25.25,-24.5,2.0,2.25,0.0,5.0, SURF_ID='BETON'/ 
&OBST ID='Wall_8', XB=-25.0,-24.5,1.75,2.0,0.0,5.0, SURF_ID='BETON'/ 
&OBST ID='Wall_8', XB=-24.75,-24.25,1.5,1.75,0.0,5.0, SURF_ID='BETON'/ 
&OBST ID='Wall_8', XB=-24.75,-24.0,1.25,1.5,0.0,5.0, SURF_ID='BETON'/ 
&OBST ID='Wall_8', XB=-24.75,-23.87,1.0,1.25,0.0,5.0, SURF_ID='BETON'/ 
&OBST ID='Wall_8', XB=-24.5,-23.75,0.75,1.0,0.0,5.0, SURF_ID='BETON'/ 
&OBST ID='Wall_8', XB=-24.25,-23.75,0.25,0.75,0.0,5.0, SURF_ID='BETON'/ 
&OBST ID='Wall_9', XB=-13.5,-13.0,-20.0,-19.75,0.0,5.0, SURF_ID='BETON'/ 
&OBST ID='Wall_9', XB=-14.25,3.5,-19.75,-19.25,0.0,5.0, SURF_ID='BETON'/ 
&OBST ID='Wall_9', XB=-13.25,-12.75,-20.25,-20.0,0.0,5.0, SURF_ID='BETON'/ 
&OBST ID='Wall_9', XB=-13.0,-12.5,-20.75,-20.25,0.0,5.0, SURF_ID='BETON'/ 
&OBST ID='Wall_9', XB=-12.75,-12.25,-21.25,-20.75,0.0,5.0, SURF_ID='BETON'/ 
&OBST ID='Wall_9', XB=-12.5,-12.0,-21.75,-21.25,0.0,5.0, SURF_ID='BETON'/ 
&OBST ID='Wall_9', XB=-12.25,-11.75,-22.0,-21.75,0.0,5.0, SURF_ID='BETON'/ 
&OBST ID='Wall_9', XB=-12.25,-11.5,-22.25,-22.0,0.0,5.0, SURF_ID='BETON'/ 
&OBST ID='Wall_9', XB=-12.0,-11.5,-22.5,-22.25,0.0,5.0, SURF_ID='BETON'/ 
&OBST ID='Wall_9', XB=-12.0,-11.25,-22.75,-22.5,0.0,5.0, SURF_ID='BETON'/ 
&OBST ID='Wall_9', XB=-11.75,-11.25,-23.0,-22.75,0.0,5.0, SURF_ID='BETON'/ 
&OBST ID='Wall_9', XB=-11.75,-11.0,-23.25,-23.0,0.0,5.0, SURF_ID='BETON'/ 
&OBST ID='Wall_9', XB=-11.5,-11.0,-23.5,-23.25,0.0,5.0, SURF_ID='BETON'/ 
&OBST ID='Wall_9', XB=-11.5,-10.75,-23.75,-23.5,0.0,5.0, SURF_ID='BETON'/ 
&OBST ID='Wall_9', XB=-11.25,-10.75,-24.0,-23.75,0.0,5.0, SURF_ID='BETON'/ 
&OBST ID='Wall_9', XB=-11.25,-10.5,-24.25,-24.0,0.0,5.0, SURF_ID='BETON'/ 
&OBST ID='Wall_9', XB=-11.0,-10.5,-24.5,-24.25,0.0,5.0, SURF_ID='BETON'/ 
&OBST ID='Wall_9', XB=-10.75,-10.25,-25.0,-24.5,0.0,5.0, SURF_ID='BETON'/ 
&OBST ID='Wall_9', XB=-10.5,-10.0,-25.5,-25.0,0.0,5.0, SURF_ID='BETON'/ 
&OBST ID='Wall_9', XB=-10.25,-9.75,-26.0,-25.5,0.0,5.0, SURF_ID='BETON'/ 
&OBST ID='Wall_9', XB=-10.0,-9.5,-26.5,-26.0,0.0,5.0, SURF_ID='BETON'/ 
&OBST ID='Wall_9', XB=-9.75,-9.25,-26.75,-26.5,0.0,5.0, SURF_ID='BETON'/ 
&OBST ID='Wall_9', XB=-9.75,-9.0,-27.0,-26.75,0.0,5.0, SURF_ID='BETON'/ 
&OBST ID='Wall_9', XB=-9.5,-9.0,-27.25,-27.0,0.0,5.0, SURF_ID='BETON'/ 
&OBST ID='Wall_9', XB=-9.5,-8.75,-27.5,-27.25,0.0,5.0, SURF_ID='BETON'/ 
&OBST ID='Wall_9', XB=-9.25,-8.75,-27.75,-27.5,0.0,5.0, SURF_ID='BETON'/ 
&OBST ID='Wall_9', XB=-9.25,-8.5,-28.0,-27.75,0.0,5.0, SURF_ID='BETON'/ 
&OBST ID='Wall_9', XB=-9.0,-8.5,-28.25,-28.0,0.0,5.0, SURF_ID='BETON'/ 
&OBST ID='Wall_9', XB=-9.0,-8.25,-28.5,-28.25,0.0,5.0, SURF_ID='BETON'/ 
&OBST ID='Wall_9', XB=-8.75,-8.25,-28.75,-28.5,0.0,5.0, SURF_ID='BETON'/ 
&OBST ID='Wall_9', XB=-8.75,-8.0,-29.0,-28.75,0.0,5.0, SURF_ID='BETON'/ 
&OBST ID='Wall_9', XB=-8.5,-8.0,-29.25,-29.0,0.0,5.0, SURF_ID='BETON'/ 
&OBST ID='Wall_9', XB=-8.5,-7.75,-29.5,-29.25,0.0,5.0, SURF_ID='BETON'/ 
&OBST ID='Wall_9', XB=-8.25,-7.75,-29.75,-29.5,0.0,5.0, SURF_ID='BETON'/ 
&OBST ID='Wall_9', XB=-8.0,-7.5,-30.25,-29.75,0.0,5.0, SURF_ID='BETON'/ 
&OBST ID='Wall_9', XB=-7.75,-7.25,-30.75,-30.25,0.0,5.0, SURF_ID='BETON'/ 
&OBST ID='Wall_9', XB=-7.5,-7.0,-31.25,-30.75,0.0,5.0, SURF_ID='BETON'/ 
&OBST ID='Wall_9', XB=-7.25,-6.75,-31.75,-31.25,0.0,5.0, SURF_ID='BETON'/ 
&OBST ID='Wall_9', XB=-7.0,-6.5,-32.0,-31.75,0.0,5.0, SURF_ID='BETON'/ 
&OBST ID='Wall_9', XB=-7.0,-6.25,-32.25,-32.0,0.0,5.0, SURF_ID='BETON'/ 
&OBST ID='Wall_9', XB=-6.75,-6.25,-32.5,-32.25,0.0,5.0, SURF_ID='BETON'/ 
&OBST ID='Wall_9', XB=-6.75,-6.0,-32.75,-32.5,0.0,5.0, SURF_ID='BETON'/ 
&OBST ID='Wall_9', XB=-6.5,-6.0,-33.0,-32.75,0.0,5.0, SURF_ID='BETON'/ 
&OBST ID='Wall_9', XB=-6.5,-5.75,-33.25,-33.0,0.0,5.0, SURF_ID='BETON'/ 
&OBST ID='Wall_9', XB=-6.25,-5.75,-33.5,-33.25,0.0,5.0, SURF_ID='BETON'/ 
&OBST ID='Wall_9', XB=-6.25,-5.5,-33.75,-33.5,0.0,5.0, SURF_ID='BETON'/ 
&OBST ID='Wall_9', XB=-6.0,-5.5,-34.0,-33.75,0.0,5.0, SURF_ID='BETON'/ 
&OBST ID='Wall_9', XB=-6.0,-5.5,-34.28,-34.0,0.0,5.0, SURF_ID='BETON'/ 
&OBST ID='Wall_9', XB=-5.75,-5.5,-34.5,-34.25,0.0,5.0, SURF_ID='BETON'/ 
&OBST ID='Laden-Wand', XB=-6.0,-5.75,22.0,22.625,0.0,5.0, RGB=204,204,204, TRANSPARENCY=0.505882, SURF_ID='BETON'/ 
&OBST ID='Laden-Wand', XB=-5.75,-5.5,21.75,22.125,0.0,5.0, RGB=204,204,204, TRANSPARENCY=0.505882, SURF_ID='BETON'/ 
&OBST ID='Laden-Wand', XB=-5.75,-5.25,21.5,21.75,0.0,5.0, RGB=204,204,204, TRANSPARENCY=0.505882, SURF_ID='BETON'/ 
&OBST ID='Laden-Wand', XB=-5.5,-5.125,21.25,21.5,0.0,5.0, RGB=204,204,204, TRANSPARENCY=0.505882, SURF_ID='BETON'/ 
&OBST ID='Laden-Wand', XB=-5.25,-5.0,20.75,21.25,0.0,5.0, RGB=204,204,204, TRANSPARENCY=0.505882, SURF_ID='BETON'/ 
&OBST ID='Laden-Wand', XB=-5.0,-4.75,20.5,20.875,0.0,5.0, RGB=204,204,204, TRANSPARENCY=0.505882, SURF_ID='BETON'/ 
&OBST ID='Laden-Wand', XB=-5.0,-4.5,20.25,20.5,0.0,5.0, RGB=204,204,204, TRANSPARENCY=0.505882, SURF_ID='BETON'/ 
&OBST ID='Laden-Wand', XB=-4.75,-4.5,20.0,20.25,0.0,5.0, RGB=204,204,204, TRANSPARENCY=0.505882, SURF_ID='BETON'/ 
&OBST ID='Laden-Wand', XB=-4.5,-4.25,19.5,20.125,0.0,5.0, RGB=204,204,204, TRANSPARENCY=0.505882, SURF_ID='BETON'/ 
&OBST ID='Laden-Wand', XB=-12.0,-11.75,33.25,33.5,0.0,5.0, RGB=204,204,204, TRANSPARENCY=0.505882, SURF_ID='BETON'/ 
&OBST ID='Laden-Wand', XB=-11.75,-11.5,32.75,33.25,0.0,5.0, RGB=204,204,204, TRANSPARENCY=0.505882, SURF_ID='BETON'/ 
&OBST ID='Laden-Wand', XB=-11.5,-11.25,32.25,32.75,0.0,5.0, RGB=204,204,204, TRANSPARENCY=0.505882, SURF_ID='BETON'/ 
&OBST ID='Laden-Wand', XB=-11.25,-11.0,31.75,32.25,0.0,5.0, RGB=204,204,204, TRANSPARENCY=0.505882, SURF_ID='BETON'/ 
&OBST ID='Laden-Wand', XB=-11.0,-10.75,31.25,31.75,0.0,5.0, RGB=204,204,204, TRANSPARENCY=0.505882, SURF_ID='BETON'/ 
&OBST ID='Laden-Wand', XB=-10.75,-10.5,31.0,31.25,0.0,5.0, RGB=204,204,204, TRANSPARENCY=0.505882, SURF_ID='BETON'/ 
&OBST ID='Laden-Wand', XB=-10.75,-10.25,30.75,31.0,0.0,5.0, RGB=204,204,204, TRANSPARENCY=0.505882, SURF_ID='BETON'/ 
&OBST ID='Laden-Wand', XB=-10.5,-10.25,30.5,30.75,0.0,5.0, RGB=204,204,204, TRANSPARENCY=0.505882, SURF_ID='BETON'/ 
&OBST ID='Laden-Wand', XB=-10.5,-10.0,30.25,30.5,0.0,5.0, RGB=204,204,204, TRANSPARENCY=0.505882, SURF_ID='BETON'/ 
&OBST ID='Laden-Wand', XB=-10.25,-10.0,29.875,30.25,0.0,5.0, RGB=204,204,204, TRANSPARENCY=0.505882, SURF_ID='BETON'/ 
&OBST ID='Laden-Wand', XB=-10.0,-9.75,29.5,30.0,0.0,5.0, RGB=204,204,204, TRANSPARENCY=0.505882, SURF_ID='BETON'/ 
&OBST ID='Laden-Wand', XB=-9.75,-9.5,29.0,29.625,0.0,5.0, RGB=204,204,204, TRANSPARENCY=0.505882, SURF_ID='BETON'/ 
&OBST ID='Laden-Wand', XB=-9.5,-9.25,28.5,29.125,0.0,5.0, RGB=204,204,204, TRANSPARENCY=0.505882, SURF_ID='BETON'/ 
&OBST ID='Laden-Wand', XB=-9.25,-9.0,28.0,28.625,0.0,5.0, RGB=204,204,204, TRANSPARENCY=0.505882, SURF_ID='BETON'/ 
&OBST ID='Laden-Wand', XB=-9.0,-8.75,27.5,28.125,0.0,5.0, RGB=204,204,204, TRANSPARENCY=0.505882, SURF_ID='BETON'/ 
&OBST ID='Laden-Wand', XB=-8.75,-8.5,27.0,27.625,0.0,5.0, RGB=204,204,204, TRANSPARENCY=0.505882, SURF_ID='BETON'/ 
&OBST ID='Laden-Wand', XB=-8.5,-8.25,26.5,27.125,0.0,5.0, RGB=204,204,204, TRANSPARENCY=0.505882, SURF_ID='BETON'/ 
&OBST ID='Laden-Wand', XB=-8.25,-8.0,26.25,26.625,0.0,5.0, RGB=204,204,204, TRANSPARENCY=0.505882, SURF_ID='BETON'/ 
&OBST ID='Laden-Wand', XB=-8.25,-7.75,26.0,26.25,0.0,5.0, RGB=204,204,204, TRANSPARENCY=0.505882, SURF_ID='BETON'/ 
&OBST ID='Laden-Wand', XB=-8.0,-7.75,25.75,26.0,0.0,5.0, RGB=204,204,204, TRANSPARENCY=0.505882, SURF_ID='BETON'/ 
&OBST ID='Laden-Wand', XB=-8.0,-7.5,25.5,25.75,0.0,5.0, RGB=204,204,204, TRANSPARENCY=0.505882, SURF_ID='BETON'/ 
&OBST ID='Laden-Wand', XB=-7.75,-7.5,25.25,25.5,0.0,5.0, RGB=204,204,204, TRANSPARENCY=0.505882, SURF_ID='BETON'/ 
&OBST ID='Laden-Wand', XB=-7.5,-7.25,24.75,25.375,0.0,5.0, RGB=204,204,204, TRANSPARENCY=0.505882, SURF_ID='BETON'/ 
&OBST ID='Laden-Wand', XB=-7.25,-7.0,24.25,24.875,0.0,5.0, RGB=204,204,204, TRANSPARENCY=0.505882, SURF_ID='BETON'/ 
&OBST ID='Laden-Wand', XB=-7.0,-6.75,24.0,24.375,0.0,5.0, RGB=204,204,204, TRANSPARENCY=0.505882, SURF_ID='BETON'/ 
&OBST ID='Laden-Wand', XB=-7.0,-6.75,23.75,24.0,0.0,5.0, RGB=204,204,204, TRANSPARENCY=0.505882, SURF_ID='BETON'/ 
&OBST ID='Laden-Wand', XB=-6.75,-6.5,23.25,23.875,0.0,5.0, RGB=204,204,204, TRANSPARENCY=0.505882, SURF_ID='BETON'/ 
&OBST ID='Laden-Wand', XB=-6.5,-6.25,23.0,23.375,0.0,5.0, RGB=204,204,204, TRANSPARENCY=0.505882, SURF_ID='BETON'/ 
&OBST ID='Laden-Wand', XB=-6.5,-6.0,22.75,23.0,0.0,5.0, RGB=204,204,204, TRANSPARENCY=0.505882, SURF_ID='BETON'/ 
&OBST ID='Laden-Wand', XB=-6.25,-6.0,22.5,22.75,0.0,5.0, RGB=204,204,204, TRANSPARENCY=0.505882, SURF_ID='BETON'/ 
&OBST ID='Laden-Wand', XB=-6.0,-5.75,22.0,22.5,0.0,5.0, RGB=204,204,204, TRANSPARENCY=0.505882, SURF_ID='BETON'/ 
&OBST ID='Laden-Wand', XB=-5.75,-5.5,21.75,22.0,0.0,5.0, RGB=204,204,204, TRANSPARENCY=0.505882, SURF_ID='BETON'/ 
&OBST ID='Laden-Wand', XB=-5.75,-5.25,21.5,21.75,0.0,5.0, RGB=204,204,204, TRANSPARENCY=0.505882, SURF_ID='BETON'/ 
&OBST ID='Laden-Wand', XB=-5.5,-5.25,21.25,21.5,0.0,5.0, RGB=204,204,204, TRANSPARENCY=0.505882, SURF_ID='BETON'/ 
&OBST ID='Laden-Wand', XB=-5.25,-5.0,20.75,21.25,0.0,5.0, RGB=204,204,204, TRANSPARENCY=0.505882, SURF_ID='BETON'/ 
&OBST ID='Laden-Wand', XB=-5.0,-4.75,20.5,20.75,0.0,5.0, RGB=204,204,204, TRANSPARENCY=0.505882, SURF_ID='BETON'/ 
&OBST ID='Laden-Wand', XB=-5.0,-4.5,20.25,20.5,0.0,5.0, RGB=204,204,204, TRANSPARENCY=0.505882, SURF_ID='BETON'/ 
&OBST ID='Laden-Wand', XB=-4.75,-4.5,20.0,20.25,0.0,5.0, RGB=204,204,204, TRANSPARENCY=0.505882, SURF_ID='BETON'/ 
&OBST ID='Laden-Wand', XB=-4.5,-4.25,19.5,20.0,0.0,5.0, RGB=204,204,204, TRANSPARENCY=0.505882, SURF_ID='BETON'/ 
&OBST ID='Laden_Wand', XB=-16.5,-16.25,18.25,18.75,0.0,5.0, RGB=204,204,204, TRANSPARENCY=0.505882, SURF_ID='BETON'/ 
&OBST ID='Laden_Wand', XB=-16.25,-16.0,17.75,18.25,0.0,5.0, RGB=204,204,204, TRANSPARENCY=0.505882, SURF_ID='BETON'/ 
&OBST ID='Laden_Wand', XB=-16.0,-15.75,17.25,17.75,0.0,5.0, RGB=204,204,204, TRANSPARENCY=0.505882, SURF_ID='BETON'/ 
&OBST ID='Laden_Wand', XB=-15.75,-15.5,16.75,17.25,0.0,5.0, RGB=204,204,204, TRANSPARENCY=0.505882, SURF_ID='BETON'/ 
&OBST ID='Laden_Wand', XB=-18.0,-17.75,21.0,21.25,0.0,5.0, RGB=204,204,204, TRANSPARENCY=0.505882, SURF_ID='BETON'/ 
&OBST ID='Laden_Wand', XB=-17.75,-17.5,20.5,21.0,0.0,5.0, RGB=204,204,204, TRANSPARENCY=0.505882, SURF_ID='BETON'/ 
&OBST ID='Laden_Wand', XB=-17.5,-17.25,20.0,20.5,0.0,5.0, RGB=204,204,204, TRANSPARENCY=0.505882, SURF_ID='BETON'/ 
&OBST ID='Laden_Wand', XB=-17.25,-17.0,19.75,20.0,0.0,5.0, RGB=204,204,204, TRANSPARENCY=0.505882, SURF_ID='BETON'/ 
&OBST ID='Laden_Wand', XB=-17.25,-16.75,19.5,19.75,0.0,5.0, RGB=204,204,204, TRANSPARENCY=0.505882, SURF_ID='BETON'/ 
&OBST ID='Laden_Wand', XB=-17.0,-16.75,19.25,19.5,0.0,5.0, RGB=204,204,204, TRANSPARENCY=0.505882, SURF_ID='BETON'/ 
&OBST ID='Laden_Wand', XB=-17.0,-16.5,19.0,19.25,0.0,5.0, RGB=204,204,204, TRANSPARENCY=0.505882, SURF_ID='BETON'/ 
&OBST ID='Laden_Wand', XB=-16.75,-16.5,18.75,19.0,0.0,5.0, RGB=204,204,204, TRANSPARENCY=0.505882, SURF_ID='BETON'/ 
&OBST ID='Laden_Wand', XB=-15.5,-15.25,16.125,16.75,0.0,5.0, RGB=204,204,204, TRANSPARENCY=0.505882, SURF_ID='BETON'/ 
&OBST ID='Laden_Wand', XB=-15.25,-15.0,15.625,16.25,0.0,5.0, RGB=204,204,204, TRANSPARENCY=0.505882, SURF_ID='BETON'/ 
&OBST ID='Laden_Wand', XB=-15.0,-14.75,15.125,15.75,0.0,5.0, RGB=204,204,204, TRANSPARENCY=0.505882, SURF_ID='BETON'/ 
&OBST ID='Laden_Wand', XB=-14.75,-14.5,14.625,15.25,0.0,5.0, RGB=204,204,204, TRANSPARENCY=0.505882, SURF_ID='BETON'/ 
&OBST ID='Laden_Wand', XB=-14.5,-14.25,14.25,14.75,0.0,5.0, RGB=204,204,204, TRANSPARENCY=0.505882, SURF_ID='BETON'/ 
&OBST ID='Laden_Wand', XB=-14.25,-14.0,13.75,14.375,0.0,5.0, RGB=204,204,204, TRANSPARENCY=0.505882, SURF_ID='BETON'/ 
&OBST ID='Laden_Wand', XB=-19.0,-18.75,3.5,4.25,0.0,5.0, RGB=204,204,204, TRANSPARENCY=0.509804, SURF_ID='BETON'/ 
&OBST ID='Laden_Wand', XB=-18.75,-18.5,4.25,5.5,0.0,5.0, RGB=204,204,204, TRANSPARENCY=0.509804, SURF_ID='BETON'/ 
&OBST ID='Laden_Wand', XB=-18.5,-18.25,5.5,6.25,0.0,5.0, RGB=204,204,204, TRANSPARENCY=0.509804, SURF_ID='BETON'/ 
&OBST ID='Laden_Wand', XB=-18.25,-18.0,6.25,6.75,0.0,5.0, RGB=204,204,204, TRANSPARENCY=0.509804, SURF_ID='BETON'/ 
&OBST ID='Laden_Wand', XB=-18.25,-17.75,6.75,7.0,0.0,5.0, RGB=204,204,204, TRANSPARENCY=0.509804, SURF_ID='BETON'/ 
&OBST ID='Laden_Wand', XB=-18.0,-17.75,7.0,7.5,0.0,5.0, RGB=204,204,204, TRANSPARENCY=0.509804, SURF_ID='BETON'/ 
&OBST ID='Laden_Wand', XB=-17.75,-17.5,7.5,8.0,0.0,5.0, RGB=204,204,204, TRANSPARENCY=0.509804, SURF_ID='BETON'/ 
&OBST ID='Laden_Wand', XB=-17.5,-17.25,8.0,8.5,0.0,5.0, RGB=204,204,204, TRANSPARENCY=0.509804, SURF_ID='BETON'/ 
&OBST ID='Laden_Wand', XB=-17.25,-17.0,8.5,9.0,0.0,5.0, RGB=204,204,204, TRANSPARENCY=0.509804, SURF_ID='BETON'/ 
&OBST ID='Laden_Wand', XB=-17.0,-16.75,9.0,9.5,0.0,5.0, RGB=204,204,204, TRANSPARENCY=0.509804, SURF_ID='BETON'/ 
&OBST ID='Laden_Wand', XB=-16.75,-16.5,9.5,9.75,0.0,5.0, RGB=204,204,204, TRANSPARENCY=0.509804, SURF_ID='BETON'/ 
&OBST ID='Laden_Wand', XB=-16.75,-16.25,9.75,10.0,0.0,5.0, RGB=204,204,204, TRANSPARENCY=0.509804, SURF_ID='BETON'/ 
&OBST ID='Laden_Wand', XB=-16.5,-16.25,10.0,10.25,0.0,5.0, RGB=204,204,204, TRANSPARENCY=0.509804, SURF_ID='BETON'/ 
&OBST ID='Laden_Wand', XB=-16.25,-16.0,10.25,10.75,0.0,5.0, RGB=204,204,204, TRANSPARENCY=0.509804, SURF_ID='BETON'/ 
&OBST ID='Laden_Wand', XB=-16.0,-15.75,10.75,11.0,0.0,5.0, RGB=204,204,204, TRANSPARENCY=0.509804, SURF_ID='BETON'/ 
&OBST ID='Laden_Wand', XB=-15.75,-15.5,11.0,11.25,0.0,5.0, RGB=204,204,204, TRANSPARENCY=0.509804, SURF_ID='BETON'/ 
&OBST ID='Laden_Wand', XB=-14.5,-14.25,-19.5,12.75,0.0,5.0, RGB=204,204,204, TRANSPARENCY=0.509804, SURF_ID='BETON'/ 
&OBST ID='Laden_Wand', XB=-15.5,-15.0,11.5,11.75,0.0,5.0, RGB=204,204,204, TRANSPARENCY=0.509804, SURF_ID='BETON'/ 
&OBST ID='Laden_Wand', XB=-15.25,-15.0,11.75,12.0,0.0,5.0, RGB=204,204,204, TRANSPARENCY=0.509804, SURF_ID='BETON'/ 
&OBST ID='Laden_Wand', XB=-15.0,-14.75,12.0,12.25,0.0,5.0, RGB=204,204,204, TRANSPARENCY=0.509804, SURF_ID='BETON'/ 
&OBST ID='Laden_Wand', XB=-14.75,-14.5,12.25,12.5,0.0,5.0, RGB=204,204,204, TRANSPARENCY=0.509804, SURF_ID='BETON'/ 
&OBST ID='Laden_Wand', XB=-14.5,-14.25,12.5,12.75,0.0,5.0, RGB=204,204,204, TRANSPARENCY=0.509804, SURF_ID='BETON'/ 
&OBST ID='Laden_Wand', XB=-14.5,-14.0,12.75,13.0,0.0,5.0, RGB=204,204,204, TRANSPARENCY=0.509804, SURF_ID='BETON'/ 
&OBST ID='Laden_Wand', XB=-14.25,-14.0,13.0,13.25,0.0,5.0, RGB=204,204,204, TRANSPARENCY=0.509804, SURF_ID='BETON'/ 