20B0218_Goldbeck_Split-Level_SZ2_M7_v09.fds
Generated by PyroSim - Version 2020.2.0520
13.10.2020 15:59:24

&HEAD CHID='20B0218_Goldbeck_Split-Level_SZ2_M7_v09'/
&TIME T_END=5400.0/
&DUMP COLUMN_DUMP_LIMIT=.TRUE., DT_DEVC=1.0, DT_HRR=1.0, DT_PL3D=30.0, DT_SLCF=1.0, WRITE_XYZ=.TRUE., PLOT3D_QUANTITY='TEMPERATURE','U-VELOCITY','V-VELOCITY','W-VELOCITY','VISIBILITY'/

&MESH ID='Mesh 1', IJK=164,60,40, XB=-1.4,31.4,22.6,34.6,0.0,8.0/
&MESH ID='Mesh 2', IJK=164,60,40, XB=-1.4,31.4,10.6,22.6,0.0,8.0/
&MESH ID='Mesh 3', IJK=164,60,40, XB=-1.4,31.4,-1.4,10.6,0.0,8.0/
&MESH ID='Mesh 4', IJK=168,60,40, XB=31.4,65.0,22.6,34.6,0.0,8.0/
&MESH ID='Mesh 5', IJK=78,60,40, XB=31.4,47.0,10.6,22.6,0.0,8.0/
&MESH ID='Mesh 6', IJK=90,60,40, XB=47.0,65.0,10.6,22.6,0.0,8.0/
&MESH ID='Mesh 7', IJK=168,60,40, XB=31.4,65.0,-1.4,10.6,0.0,8.0/

&VENT MB= 'XMIN',	SURF_ID='OPEN'/
&VENT MB= 'XMAX',	SURF_ID='OPEN'/
&VENT MB= 'YMIN',	SURF_ID='OPEN'/
&VENT MB= 'YMAX',	SURF_ID='OPEN'/
&VENT MB= 'ZMAX',	SURF_ID='OPEN'/


&REAC ID='Reaction1',
      FYI='Mischbrandlast aus:		40% Polyethylen,30% Styropor, 30% Polyurethan',
      FUEL='REAC_FUEL',
      C=1.0,
      H=1.46,
      O=0.066,
      N=0.03,
      SOOT_YIELD=0.09,
      HEAT_OF_COMBUSTION=2.582E4,
      RADIATIVE_FRACTION=0.3/

&DEVC ID='SZ2_SM_-3/0_2_110', QUANTITY='ADIABATIC SURFACE TEMPERATURE', XYZ=38.1,16.5,1.5, IOR=-2/
&DEVC ID='SZ2_SM_-3/0_3_110', QUANTITY='ADIABATIC SURFACE TEMPERATURE', XYZ=38.3,16.7,1.5, IOR=1/
&DEVC ID='SZ2_SM_-3/0_4_110', QUANTITY='ADIABATIC SURFACE TEMPERATURE', XYZ=37.9,16.7,1.5, IOR=-1/
&DEVC ID='SZ2_SM_-3/0_2_130', QUANTITY='ADIABATIC SURFACE TEMPERATURE', XYZ=38.1,16.5,1.7, IOR=-2/
&DEVC ID='SZ2_SM_-3/0_3_130', QUANTITY='ADIABATIC SURFACE TEMPERATURE', XYZ=38.3,16.7,1.7, IOR=1/
&DEVC ID='SZ2_SM_-3/0_4_130', QUANTITY='ADIABATIC SURFACE TEMPERATURE', XYZ=37.9,16.7,1.7, IOR=-1/
&DEVC ID='SZ2_SM_-3/0_1_150', QUANTITY='ADIABATIC SURFACE TEMPERATURE', XYZ=38.1,16.9,1.9, IOR=2/
&DEVC ID='SZ2_SM_-3/0_2_150', QUANTITY='ADIABATIC SURFACE TEMPERATURE', XYZ=38.1,16.5,1.9, IOR=-2/
&DEVC ID='SZ2_SM_-3/0_3_150', QUANTITY='ADIABATIC SURFACE TEMPERATURE', XYZ=38.3,16.7,1.9, IOR=1/
&DEVC ID='SZ2_SM_-3/0_4_150', QUANTITY='ADIABATIC SURFACE TEMPERATURE', XYZ=37.9,16.7,1.9, IOR=-1/
&DEVC ID='SZ2_SM_-3/0_1_230', QUANTITY='ADIABATIC SURFACE TEMPERATURE', XYZ=38.1,16.9,2.7, IOR=2/
&DEVC ID='SZ2_SM_-3/0_3_230', QUANTITY='ADIABATIC SURFACE TEMPERATURE', XYZ=38.3,16.7,2.7, IOR=1/
&DEVC ID='SZ2_SM_-3/0_4_230', QUANTITY='ADIABATIC SURFACE TEMPERATURE', XYZ=37.9,16.7,2.7, IOR=-1/
&DEVC ID='SZ2_SM_-3/0_1_290', QUANTITY='ADIABATIC SURFACE TEMPERATURE', XYZ=38.1,16.9,3.3, IOR=2/
&DEVC ID='SZ2_SM_-3/0_2_290', QUANTITY='ADIABATIC SURFACE TEMPERATURE', XYZ=38.1,16.5,3.3, IOR=-2/
&DEVC ID='SZ2_SM_-3/0_1_310', QUANTITY='ADIABATIC SURFACE TEMPERATURE', XYZ=38.1,16.9,3.5, IOR=2/
&DEVC ID='SZ2_SM_-3/0_2_310', QUANTITY='ADIABATIC SURFACE TEMPERATURE', XYZ=38.1,16.5,3.5, IOR=-2/
&DEVC ID='SZ2_SM_-3/0_1_330', QUANTITY='ADIABATIC SURFACE TEMPERATURE', XYZ=38.1,16.9,3.7, IOR=2/
&DEVC ID='SZ2_SM_-3/0_2_330', QUANTITY='ADIABATIC SURFACE TEMPERATURE', XYZ=38.1,16.5,3.7, IOR=-2/
&DEVC ID='SZ2_SM_-3/0_2_390', QUANTITY='ADIABATIC SURFACE TEMPERATURE', XYZ=38.1,16.5,4.3, IOR=-2/
&DEVC ID='SZ2_SM_-2/0_2_110', QUANTITY='ADIABATIC SURFACE TEMPERATURE', XYZ=40.7,16.5,1.5, IOR=-2/
&DEVC ID='SZ2_SM_-2/0_3_110', QUANTITY='ADIABATIC SURFACE TEMPERATURE', XYZ=40.9,16.7,1.5, IOR=1/
&DEVC ID='SZ2_SM_-2/0_4_110', QUANTITY='ADIABATIC SURFACE TEMPERATURE', XYZ=40.5,16.7,1.5, IOR=-1/
&DEVC ID='SZ2_SM_-2/0_2_130', QUANTITY='ADIABATIC SURFACE TEMPERATURE', XYZ=40.7,16.5,1.7, IOR=-2/
&DEVC ID='SZ2_SM_-2/0_3_130', QUANTITY='ADIABATIC SURFACE TEMPERATURE', XYZ=40.9,16.7,1.7, IOR=1/
&DEVC ID='SZ2_SM_-2/0_4_130', QUANTITY='ADIABATIC SURFACE TEMPERATURE', XYZ=40.5,16.7,1.7, IOR=-1/
&DEVC ID='SZ2_SM_-2/0_1_150', QUANTITY='ADIABATIC SURFACE TEMPERATURE', XYZ=40.7,16.9,1.9, IOR=2/
&DEVC ID='SZ2_SM_-2/0_2_150', QUANTITY='ADIABATIC SURFACE TEMPERATURE', XYZ=40.7,16.5,1.9, IOR=-2/
&DEVC ID='SZ2_SM_-2/0_3_150', QUANTITY='ADIABATIC SURFACE TEMPERATURE', XYZ=40.9,16.7,1.9, IOR=1/
&DEVC ID='SZ2_SM_-2/0_4_150', QUANTITY='ADIABATIC SURFACE TEMPERATURE', XYZ=40.5,16.7,1.9, IOR=-1/
&DEVC ID='SZ2_SM_-2/0_1_230', QUANTITY='ADIABATIC SURFACE TEMPERATURE', XYZ=40.7,16.9,2.7, IOR=2/
&DEVC ID='SZ2_SM_-2/0_3_230', QUANTITY='ADIABATIC SURFACE TEMPERATURE', XYZ=40.9,16.7,2.7, IOR=1/
&DEVC ID='SZ2_SM_-2/0_4_230', QUANTITY='ADIABATIC SURFACE TEMPERATURE', XYZ=40.5,16.7,2.7, IOR=-1/
&DEVC ID='SZ2_SM_-2/0_1_290', QUANTITY='ADIABATIC SURFACE TEMPERATURE', XYZ=40.7,16.9,3.3, IOR=2/
&DEVC ID='SZ2_SM_-2/0_2_290', QUANTITY='ADIABATIC SURFACE TEMPERATURE', XYZ=40.7,16.5,3.3, IOR=-2/
&DEVC ID='SZ2_SM_-2/0_1_310', QUANTITY='ADIABATIC SURFACE TEMPERATURE', XYZ=40.7,16.9,3.5, IOR=2/
&DEVC ID='SZ2_SM_-2/0_2_310', QUANTITY='ADIABATIC SURFACE TEMPERATURE', XYZ=40.7,16.5,3.5, IOR=-2/
&DEVC ID='SZ2_SM_-2/0_1_330', QUANTITY='ADIABATIC SURFACE TEMPERATURE', XYZ=40.7,16.9,3.7, IOR=2/
&DEVC ID='SZ2_SM_-2/0_2_330', QUANTITY='ADIABATIC SURFACE TEMPERATURE', XYZ=40.7,16.5,3.7, IOR=-2/
&DEVC ID='SZ2_SM_-2/0_2_390', QUANTITY='ADIABATIC SURFACE TEMPERATURE', XYZ=40.7,16.5,4.3, IOR=-2/
&DEVC ID='SZ2_SM_-1/0_2_110', QUANTITY='ADIABATIC SURFACE TEMPERATURE', XYZ=43.1,16.5,1.5, IOR=-2/
&DEVC ID='SZ2_SM_-1/0_4_110', QUANTITY='ADIABATIC SURFACE TEMPERATURE', XYZ=42.9,16.7,1.5, IOR=-1/
&DEVC ID='SZ2_SM_-1/0_3_110', QUANTITY='ADIABATIC SURFACE TEMPERATURE', XYZ=43.3,16.7,1.5, IOR=1/
&DEVC ID='SZ2_SM_-1/0_2_130', QUANTITY='ADIABATIC SURFACE TEMPERATURE', XYZ=43.1,16.5,1.7, IOR=-2/
&DEVC ID='SZ2_SM_-1/0_3_130', QUANTITY='ADIABATIC SURFACE TEMPERATURE', XYZ=43.3,16.7,1.7, IOR=1/
&DEVC ID='SZ2_SM_-1/0_4_130', QUANTITY='ADIABATIC SURFACE TEMPERATURE', XYZ=42.9,16.7,1.7, IOR=-1/
&DEVC ID='SZ2_SM_-1/0_1_150', QUANTITY='ADIABATIC SURFACE TEMPERATURE', XYZ=43.1,16.9,1.9, IOR=2/
&DEVC ID='SZ2_SM_-1/0_2_150', QUANTITY='ADIABATIC SURFACE TEMPERATURE', XYZ=43.1,16.5,1.9, IOR=-2/
&DEVC ID='SZ2_SM_-1/0_3_150', QUANTITY='ADIABATIC SURFACE TEMPERATURE', XYZ=43.3,16.7,1.9, IOR=1/
&DEVC ID='SZ2_SM_-1/0_4_150', QUANTITY='ADIABATIC SURFACE TEMPERATURE', XYZ=42.9,16.7,1.9, IOR=-1/
&DEVC ID='SZ2_SM_-1/0_1_230', QUANTITY='ADIABATIC SURFACE TEMPERATURE', XYZ=43.1,16.9,2.7, IOR=2/
&DEVC ID='SZ2_SM_-1/0_3_230', QUANTITY='ADIABATIC SURFACE TEMPERATURE', XYZ=43.3,16.7,2.7, IOR=1/
&DEVC ID='SZ2_SM_-1/0_4_230', QUANTITY='ADIABATIC SURFACE TEMPERATURE', XYZ=42.9,16.7,2.7, IOR=-1/
&DEVC ID='SZ2_SM_-1/0_1_290', QUANTITY='ADIABATIC SURFACE TEMPERATURE', XYZ=43.1,16.9,3.3, IOR=2/
&DEVC ID='SZ2_SM_-1/0_2_290', QUANTITY='ADIABATIC SURFACE TEMPERATURE', XYZ=43.1,16.5,3.3, IOR=-2/
&DEVC ID='SZ2_SM_-1/0_1_310', QUANTITY='ADIABATIC SURFACE TEMPERATURE', XYZ=43.1,16.9,3.5, IOR=2/
&DEVC ID='SZ2_SM_-1/0_2_310', QUANTITY='ADIABATIC SURFACE TEMPERATURE', XYZ=43.1,16.5,3.5, IOR=-2/
&DEVC ID='SZ2_SM_-1/0_1_330', QUANTITY='ADIABATIC SURFACE TEMPERATURE', XYZ=43.1,16.9,3.7, IOR=2/
&DEVC ID='SZ2_SM_-1/0_2_330', QUANTITY='ADIABATIC SURFACE TEMPERATURE', XYZ=43.1,16.5,3.7, IOR=-2/
&DEVC ID='SZ2_SM_-1/0_2_390', QUANTITY='ADIABATIC SURFACE TEMPERATURE', XYZ=43.1,16.5,4.3, IOR=-2/
&DEVC ID='SZ2_SM_1/0_2_110', QUANTITY='ADIABATIC SURFACE TEMPERATURE', XYZ=45.7,16.5,1.5, IOR=-2/
&DEVC ID='SZ2_SM_1/0_3_110', QUANTITY='ADIABATIC SURFACE TEMPERATURE', XYZ=45.9,16.7,1.5, IOR=1/
&DEVC ID='SZ2_SM_1/0_4_110', QUANTITY='ADIABATIC SURFACE TEMPERATURE', XYZ=45.5,16.7,1.5, IOR=-1/
&DEVC ID='SZ2_SM_1/0_2_130', QUANTITY='ADIABATIC SURFACE TEMPERATURE', XYZ=45.7,16.5,1.7, IOR=-2/
&DEVC ID='SZ2_SM_1/0_3_130', QUANTITY='ADIABATIC SURFACE TEMPERATURE', XYZ=45.9,16.7,1.7, IOR=1/
&DEVC ID='SZ2_SM_1/0_4_130', QUANTITY='ADIABATIC SURFACE TEMPERATURE', XYZ=45.5,16.7,1.7, IOR=-1/
&DEVC ID='SZ2_SM_1/0_1_150', QUANTITY='ADIABATIC SURFACE TEMPERATURE', XYZ=45.7,16.9,1.9, IOR=2/
&DEVC ID='SZ2_SM_1/0_2_150', QUANTITY='ADIABATIC SURFACE TEMPERATURE', XYZ=45.7,16.5,1.9, IOR=-2/
&DEVC ID='SZ2_SM_1/0_3_150', QUANTITY='ADIABATIC SURFACE TEMPERATURE', XYZ=45.9,16.7,1.9, IOR=1/
&DEVC ID='SZ2_SM_1/0_4_150', QUANTITY='ADIABATIC SURFACE TEMPERATURE', XYZ=45.5,16.7,1.9, IOR=-1/
&DEVC ID='SZ2_SM_1/0_1_230', QUANTITY='ADIABATIC SURFACE TEMPERATURE', XYZ=45.7,16.9,2.7, IOR=2/
&DEVC ID='SZ2_SM_1/0_3_230', QUANTITY='ADIABATIC SURFACE TEMPERATURE', XYZ=45.9,16.7,2.7, IOR=1/
&DEVC ID='SZ2_SM_1/0_4_230', QUANTITY='ADIABATIC SURFACE TEMPERATURE', XYZ=45.5,16.7,2.7, IOR=-1/
&DEVC ID='SZ2_SM_1/0_1_290', QUANTITY='ADIABATIC SURFACE TEMPERATURE', XYZ=45.7,16.9,3.3, IOR=2/
&DEVC ID='SZ2_SM_1/0_2_290', QUANTITY='ADIABATIC SURFACE TEMPERATURE', XYZ=45.7,16.5,3.3, IOR=-2/
&DEVC ID='SZ2_SM_1/0_1_310', QUANTITY='ADIABATIC SURFACE TEMPERATURE', XYZ=45.7,16.9,3.5, IOR=2/
&DEVC ID='SZ2_SM_1/0_2_310', QUANTITY='ADIABATIC SURFACE TEMPERATURE', XYZ=45.7,16.5,3.5, IOR=-2/
&DEVC ID='SZ2_SM_1/0_1_330', QUANTITY='ADIABATIC SURFACE TEMPERATURE', XYZ=45.7,16.9,3.7, IOR=2/
&DEVC ID='SZ2_SM_1/0_2_330', QUANTITY='ADIABATIC SURFACE TEMPERATURE', XYZ=45.7,16.5,3.7, IOR=-2/
&DEVC ID='SZ2_SM_1/0_2_390', QUANTITY='ADIABATIC SURFACE TEMPERATURE', XYZ=45.7,16.5,4.3, IOR=-2/
&DEVC ID='SZ2_SM_2/0_2_110', QUANTITY='ADIABATIC SURFACE TEMPERATURE', XYZ=48.1,16.5,1.5, IOR=-2/
&DEVC ID='SZ2_SM_2/0_3_110', QUANTITY='ADIABATIC SURFACE TEMPERATURE', XYZ=48.3,16.7,1.5, IOR=1/
&DEVC ID='SZ2_SM_2/0_4_110', QUANTITY='ADIABATIC SURFACE TEMPERATURE', XYZ=47.9,16.7,1.5, IOR=-1/
&DEVC ID='SZ2_SM_2/0_2_130', QUANTITY='ADIABATIC SURFACE TEMPERATURE', XYZ=48.1,16.5,1.7, IOR=-2/
&DEVC ID='SZ2_SM_2/0_3_130', QUANTITY='ADIABATIC SURFACE TEMPERATURE', XYZ=48.3,16.7,1.7, IOR=1/
&DEVC ID='SZ2_SM_2/0_4_130', QUANTITY='ADIABATIC SURFACE TEMPERATURE', XYZ=47.9,16.7,1.7, IOR=-1/
&DEVC ID='SZ2_SM_2/0_1_150', QUANTITY='ADIABATIC SURFACE TEMPERATURE', XYZ=48.1,16.9,1.9, IOR=2/
&DEVC ID='SZ2_SM_2/0_2_150', QUANTITY='ADIABATIC SURFACE TEMPERATURE', XYZ=48.1,16.5,1.9, IOR=-2/
&DEVC ID='SZ2_SM_2/0_3_150', QUANTITY='ADIABATIC SURFACE TEMPERATURE', XYZ=48.3,16.7,1.9, IOR=1/
&DEVC ID='SZ2_SM_2/0_4_150', QUANTITY='ADIABATIC SURFACE TEMPERATURE', XYZ=47.9,16.7,1.9, IOR=-1/
&DEVC ID='SZ2_SM_2/0_1_230', QUANTITY='ADIABATIC SURFACE TEMPERATURE', XYZ=48.1,16.9,2.7, IOR=2/
&DEVC ID='SZ2_SM_2/0_3_230', QUANTITY='ADIABATIC SURFACE TEMPERATURE', XYZ=48.3,16.7,2.7, IOR=1/
&DEVC ID='SZ2_SM_2/0_4_230', QUANTITY='ADIABATIC SURFACE TEMPERATURE', XYZ=47.9,16.7,2.7, IOR=-1/
&DEVC ID='SZ2_SM_2/0_1_290', QUANTITY='ADIABATIC SURFACE TEMPERATURE', XYZ=48.1,16.9,3.3, IOR=2/
&DEVC ID='SZ2_SM_2/0_2_290', QUANTITY='ADIABATIC SURFACE TEMPERATURE', XYZ=48.1,16.5,3.3, IOR=-2/
&DEVC ID='SZ2_SM_2/0_1_310', QUANTITY='ADIABATIC SURFACE TEMPERATURE', XYZ=48.1,16.9,3.5, IOR=2/
&DEVC ID='SZ2_SM_2/0_2_310', QUANTITY='ADIABATIC SURFACE TEMPERATURE', XYZ=48.1,16.5,3.5, IOR=-2/
&DEVC ID='SZ2_SM_2/0_1_330', QUANTITY='ADIABATIC SURFACE TEMPERATURE', XYZ=48.1,16.9,3.7, IOR=2/
&DEVC ID='SZ2_SM_2/0_2_330', QUANTITY='ADIABATIC SURFACE TEMPERATURE', XYZ=48.1,16.5,3.7, IOR=-2/
&DEVC ID='SZ2_SM_2/0_2_390', QUANTITY='ADIABATIC SURFACE TEMPERATURE', XYZ=48.1,16.5,4.3, IOR=-2/
&DEVC ID='SZ2_SM_3/0_2_110', QUANTITY='ADIABATIC SURFACE TEMPERATURE', XYZ=50.7,16.5,1.5, IOR=-2/
&DEVC ID='SZ2_SM_3/0_3_110', QUANTITY='ADIABATIC SURFACE TEMPERATURE', XYZ=50.9,16.7,1.5, IOR=1/
&DEVC ID='SZ2_SM_3/0_4_110', QUANTITY='ADIABATIC SURFACE TEMPERATURE', XYZ=50.5,16.7,1.5, IOR=-1/
&DEVC ID='SZ2_SM_3/0_2_130', QUANTITY='ADIABATIC SURFACE TEMPERATURE', XYZ=50.7,16.5,1.7, IOR=-2/
&DEVC ID='SZ2_SM_3/0_3_130', QUANTITY='ADIABATIC SURFACE TEMPERATURE', XYZ=50.9,16.7,1.7, IOR=1/
&DEVC ID='SZ2_SM_3/0_4_130', QUANTITY='ADIABATIC SURFACE TEMPERATURE', XYZ=50.5,16.7,1.7, IOR=-1/
&DEVC ID='SZ2_SM_3/0_1_150', QUANTITY='ADIABATIC SURFACE TEMPERATURE', XYZ=50.7,16.9,1.9, IOR=2/
&DEVC ID='SZ2_SM_3/0_2_150', QUANTITY='ADIABATIC SURFACE TEMPERATURE', XYZ=50.7,16.5,1.9, IOR=-2/
&DEVC ID='SZ2_SM_3/0_3_150', QUANTITY='ADIABATIC SURFACE TEMPERATURE', XYZ=50.9,16.7,1.9, IOR=1/
&DEVC ID='SZ2_SM_3/0_4_150', QUANTITY='ADIABATIC SURFACE TEMPERATURE', XYZ=50.5,16.7,1.9, IOR=-1/
&DEVC ID='SZ2_SM_3/0_1_230', QUANTITY='ADIABATIC SURFACE TEMPERATURE', XYZ=50.7,16.9,2.7, IOR=2/
&DEVC ID='SZ2_SM_3/0_3_230', QUANTITY='ADIABATIC SURFACE TEMPERATURE', XYZ=50.9,16.7,2.7, IOR=1/
&DEVC ID='SZ2_SM_3/0_4_230', QUANTITY='ADIABATIC SURFACE TEMPERATURE', XYZ=50.5,16.7,2.7, IOR=-1/
&DEVC ID='SZ2_SM_3/0_1_290', QUANTITY='ADIABATIC SURFACE TEMPERATURE', XYZ=50.7,16.9,3.3, IOR=2/
&DEVC ID='SZ2_SM_3/0_2_290', QUANTITY='ADIABATIC SURFACE TEMPERATURE', XYZ=50.7,16.5,3.3, IOR=-2/
&DEVC ID='SZ2_SM_3/0_1_310', QUANTITY='ADIABATIC SURFACE TEMPERATURE', XYZ=50.7,16.9,3.5, IOR=2/
&DEVC ID='SZ2_SM_3/0_2_310', QUANTITY='ADIABATIC SURFACE TEMPERATURE', XYZ=50.7,16.5,3.5, IOR=-2/
&DEVC ID='SZ2_SM_3/0_1_330', QUANTITY='ADIABATIC SURFACE TEMPERATURE', XYZ=50.7,16.9,3.7, IOR=2/
&DEVC ID='SZ2_SM_3/0_2_330', QUANTITY='ADIABATIC SURFACE TEMPERATURE', XYZ=50.7,16.5,3.7, IOR=-2/
&DEVC ID='SZ2_SM_3/0_2_390', QUANTITY='ADIABATIC SURFACE TEMPERATURE', XYZ=50.7,16.5,4.3, IOR=-2/
&DEVC ID='SZ2_DT_-3/1.20_01', QUANTITY='ADIABATIC SURFACE TEMPERATURE', XYZ=38.1,17.9,3.9, IOR=-3/
&DEVC ID='SZ2_DT_-3/1.60_01', QUANTITY='ADIABATIC SURFACE TEMPERATURE', XYZ=38.1,18.3,3.9, IOR=-3/
&DEVC ID='SZ2_DT_-3/2.00_01', QUANTITY='ADIABATIC SURFACE TEMPERATURE', XYZ=38.1,18.7,3.9, IOR=-3/
&DEVC ID='SZ2_DT_-3/2.40_01', QUANTITY='ADIABATIC SURFACE TEMPERATURE', XYZ=38.1,19.1,3.9, IOR=-3/
&DEVC ID='SZ2_DT_-3/2.80_01', QUANTITY='ADIABATIC SURFACE TEMPERATURE', XYZ=38.1,19.5,3.9, IOR=-3/
&DEVC ID='SZ2_DT_-3/3.20_01', QUANTITY='ADIABATIC SURFACE TEMPERATURE', XYZ=38.1,19.9,3.9, IOR=-3/
&DEVC ID='SZ2_DT_-3/3.60_01', QUANTITY='ADIABATIC SURFACE TEMPERATURE', XYZ=38.1,20.3,3.9, IOR=-3/
&DEVC ID='SZ2_DT_-3/4.00_01', QUANTITY='ADIABATIC SURFACE TEMPERATURE', XYZ=38.1,20.7,3.9, IOR=-3/
&DEVC ID='SZ2_DT_-3/5.00_01', QUANTITY='ADIABATIC SURFACE TEMPERATURE', XYZ=38.1,21.7,3.9, IOR=-3/
&DEVC ID='SZ2_DT_-3/8.20_01', QUANTITY='ADIABATIC SURFACE TEMPERATURE', XYZ=38.1,24.9,3.9, IOR=-3/
&DEVC ID='SZ2_DT_-3/-1.20_01', QUANTITY='ADIABATIC SURFACE TEMPERATURE', XYZ=38.1,15.5,2.5, IOR=-3/
&DEVC ID='SZ2_DT_-3/-1.60_01', QUANTITY='ADIABATIC SURFACE TEMPERATURE', XYZ=38.1,15.1,2.5, IOR=-3/
&DEVC ID='SZ2_DT_-3/-2.00_01', QUANTITY='ADIABATIC SURFACE TEMPERATURE', XYZ=38.1,14.7,2.5, IOR=-3/
&DEVC ID='SZ2_DT_-3/-2.40_01', QUANTITY='ADIABATIC SURFACE TEMPERATURE', XYZ=38.1,14.3,2.5, IOR=-3/
&DEVC ID='SZ2_DT_-3/-2.80_01', QUANTITY='ADIABATIC SURFACE TEMPERATURE', XYZ=38.1,13.9,2.5, IOR=-3/
&DEVC ID='SZ2_DT_-3/-3.20_01', QUANTITY='ADIABATIC SURFACE TEMPERATURE', XYZ=38.1,13.5,2.5, IOR=-3/
&DEVC ID='SZ2_DT_-3/-3.60_01', QUANTITY='ADIABATIC SURFACE TEMPERATURE', XYZ=38.1,13.1,2.5, IOR=-3/
&DEVC ID='SZ2_DT_-3/-4.00_01', QUANTITY='ADIABATIC SURFACE TEMPERATURE', XYZ=38.1,12.7,2.5, IOR=-3/
&DEVC ID='SZ2_DT_-3/-5.00_01', QUANTITY='ADIABATIC SURFACE TEMPERATURE', XYZ=38.1,11.7,2.5, IOR=-3/
&DEVC ID='SZ2_DT_-3/-8.20_01', QUANTITY='ADIABATIC SURFACE TEMPERATURE', XYZ=38.1,8.5,2.5, IOR=-3/
&DEVC ID='SZ2_DT_-2/1.20_1', QUANTITY='ADIABATIC SURFACE TEMPERATURE', XYZ=40.7,17.9,3.9, IOR=-3/
&DEVC ID='SZ2_DT_-2/1.60_1', QUANTITY='ADIABATIC SURFACE TEMPERATURE', XYZ=40.7,18.3,3.9, IOR=-3/
&DEVC ID='SZ2_DT_-2/2.00_1', QUANTITY='ADIABATIC SURFACE TEMPERATURE', XYZ=40.7,18.7,3.9, IOR=-3/
&DEVC ID='SZ2_DT_-2/2.40_1', QUANTITY='ADIABATIC SURFACE TEMPERATURE', XYZ=40.7,19.1,3.9, IOR=-3/
&DEVC ID='SZ2_DT_-2/2.80_1', QUANTITY='ADIABATIC SURFACE TEMPERATURE', XYZ=40.7,19.5,3.9, IOR=-3/
&DEVC ID='SZ2_DT_-2/3.20_1', QUANTITY='ADIABATIC SURFACE TEMPERATURE', XYZ=40.7,19.9,3.9, IOR=-3/
&DEVC ID='SZ2_DT_-2/3.60_1', QUANTITY='ADIABATIC SURFACE TEMPERATURE', XYZ=40.7,20.3,3.9, IOR=-3/
&DEVC ID='SZ2_DT_-2/4.00_1', QUANTITY='ADIABATIC SURFACE TEMPERATURE', XYZ=40.7,20.7,3.9, IOR=-3/
&DEVC ID='SZ2_DT_-2/5.00_1', QUANTITY='ADIABATIC SURFACE TEMPERATURE', XYZ=40.7,21.7,3.9, IOR=-3/
&DEVC ID='SZ2_DT_-2/8.20_1', QUANTITY='ADIABATIC SURFACE TEMPERATURE', XYZ=40.7,24.9,3.9, IOR=-3/
&DEVC ID='SZ2_DT_-2/-1.20_1', QUANTITY='ADIABATIC SURFACE TEMPERATURE', XYZ=40.7,15.5,2.5, IOR=-3/
&DEVC ID='SZ2_DT_-2/-1.60_1', QUANTITY='ADIABATIC SURFACE TEMPERATURE', XYZ=40.7,15.1,2.5, IOR=-3/
&DEVC ID='SZ2_DT_-2/-2.00_1', QUANTITY='ADIABATIC SURFACE TEMPERATURE', XYZ=40.7,14.7,2.5, IOR=-3/
&DEVC ID='SZ2_DT_-2/-2.40_1', QUANTITY='ADIABATIC SURFACE TEMPERATURE', XYZ=40.7,14.3,2.5, IOR=-3/
&DEVC ID='SZ2_DT_-2/-2.80_1', QUANTITY='ADIABATIC SURFACE TEMPERATURE', XYZ=40.7,13.9,2.5, IOR=-3/
&DEVC ID='SZ2_DT_-2/-3.20_1', QUANTITY='ADIABATIC SURFACE TEMPERATURE', XYZ=40.7,13.5,2.5, IOR=-3/
&DEVC ID='SZ2_DT_-2/-3.60_1', QUANTITY='ADIABATIC SURFACE TEMPERATURE', XYZ=40.7,13.1,2.5, IOR=-3/
&DEVC ID='SZ2_DT_-2/-4.00_1', QUANTITY='ADIABATIC SURFACE TEMPERATURE', XYZ=40.7,12.7,2.5, IOR=-3/
&DEVC ID='SZ2_DT_-2/-5.00_1', QUANTITY='ADIABATIC SURFACE TEMPERATURE', XYZ=40.7,11.7,2.5, IOR=-3/
&DEVC ID='SZ2_DT_-2/-8.20_1', QUANTITY='ADIABATIC SURFACE TEMPERATURE', XYZ=40.7,8.5,2.5, IOR=-3/
&DEVC ID='SZ2_DT_-1/1.20_1', QUANTITY='ADIABATIC SURFACE TEMPERATURE', XYZ=43.1,17.9,3.9, IOR=-3/
&DEVC ID='SZ2_DT_-1/1.60_1', QUANTITY='ADIABATIC SURFACE TEMPERATURE', XYZ=43.1,18.3,3.9, IOR=-3/
&DEVC ID='SZ2_DT_-1/2.00_1', QUANTITY='ADIABATIC SURFACE TEMPERATURE', XYZ=43.1,18.7,3.9, IOR=-3/
&DEVC ID='SZ2_DT_-1/2.80_1', QUANTITY='ADIABATIC SURFACE TEMPERATURE', XYZ=43.1,19.5,3.9, IOR=-3/
&DEVC ID='SZ2_DT_-1/3.20_1', QUANTITY='ADIABATIC SURFACE TEMPERATURE', XYZ=43.1,19.9,3.9, IOR=-3/
&DEVC ID='SZ2_DT_-1/2.40_1', QUANTITY='ADIABATIC SURFACE TEMPERATURE', XYZ=43.1,19.1,3.9, IOR=-3/
&DEVC ID='SZ2_DT_-1/3.60_1', QUANTITY='ADIABATIC SURFACE TEMPERATURE', XYZ=43.1,20.3,3.9, IOR=-3/
&DEVC ID='SZ2_DT_-1/4.00_1', QUANTITY='ADIABATIC SURFACE TEMPERATURE', XYZ=43.1,20.7,3.9, IOR=-3/
&DEVC ID='SZ2_DT_-1/5.00_1', QUANTITY='ADIABATIC SURFACE TEMPERATURE', XYZ=43.1,21.7,3.9, IOR=-3/
&DEVC ID='SZ2_DT_-1/8.20_1', QUANTITY='ADIABATIC SURFACE TEMPERATURE', XYZ=43.1,24.9,3.9, IOR=-3/
&DEVC ID='SZ2_DT_-1/-1.20_1', QUANTITY='ADIABATIC SURFACE TEMPERATURE', XYZ=43.1,15.5,2.5, IOR=-3/
&DEVC ID='SZ2_DT_-1/-1.60_1', QUANTITY='ADIABATIC SURFACE TEMPERATURE', XYZ=43.1,15.1,2.5, IOR=-3/
&DEVC ID='SZ2_DT_-1/-2.00_1', QUANTITY='ADIABATIC SURFACE TEMPERATURE', XYZ=43.1,14.7,2.5, IOR=-3/
&DEVC ID='SZ2_DT_-1/-2.40_1', QUANTITY='ADIABATIC SURFACE TEMPERATURE', XYZ=43.1,14.3,2.5, IOR=-3/
&DEVC ID='SZ2_DT_-1/-2.80_1', QUANTITY='ADIABATIC SURFACE TEMPERATURE', XYZ=43.1,13.9,2.5, IOR=-3/
&DEVC ID='SZ2_DT_-1/-3.20_1', QUANTITY='ADIABATIC SURFACE TEMPERATURE', XYZ=43.1,13.5,2.5, IOR=-3/
&DEVC ID='SZ2_DT_-1/-3.60_1', QUANTITY='ADIABATIC SURFACE TEMPERATURE', XYZ=43.1,13.1,2.5, IOR=-3/
&DEVC ID='SZ2_DT_-1/-4.00_1', QUANTITY='ADIABATIC SURFACE TEMPERATURE', XYZ=43.1,12.7,2.5, IOR=-3/
&DEVC ID='SZ2_DT_-1/-5.00_1', QUANTITY='ADIABATIC SURFACE TEMPERATURE', XYZ=43.1,11.7,2.5, IOR=-3/
&DEVC ID='SZ2_DT_-1/-8.20_1', QUANTITY='ADIABATIC SURFACE TEMPERATURE', XYZ=43.1,8.5,2.5, IOR=-3/
&DEVC ID='SZ2_DT_1/1.20_1', QUANTITY='ADIABATIC SURFACE TEMPERATURE', XYZ=45.7,17.9,3.9, IOR=-3/
&DEVC ID='SZ2_DT_1/1.60_1', QUANTITY='ADIABATIC SURFACE TEMPERATURE', XYZ=45.7,18.3,3.9, IOR=-3/
&DEVC ID='SZ2_DT_1/2.00_1', QUANTITY='ADIABATIC SURFACE TEMPERATURE', XYZ=45.7,18.7,3.9, IOR=-3/
&DEVC ID='SZ2_DT_1/2.40_1', QUANTITY='ADIABATIC SURFACE TEMPERATURE', XYZ=45.7,19.1,3.9, IOR=-3/
&DEVC ID='SZ2_DT_1/2.80_1', QUANTITY='ADIABATIC SURFACE TEMPERATURE', XYZ=45.7,19.5,3.9, IOR=-3/
&DEVC ID='SZ2_DT_1/3.20_1', QUANTITY='ADIABATIC SURFACE TEMPERATURE', XYZ=45.7,19.9,3.9, IOR=-3/
&DEVC ID='SZ2_DT_1/3.60_1', QUANTITY='ADIABATIC SURFACE TEMPERATURE', XYZ=45.7,20.3,3.9, IOR=-3/
&DEVC ID='SZ2_DT_1/4.00_1', QUANTITY='ADIABATIC SURFACE TEMPERATURE', XYZ=45.7,20.7,3.9, IOR=-3/
&DEVC ID='SZ2_DT_1/5.00_1', QUANTITY='ADIABATIC SURFACE TEMPERATURE', XYZ=45.7,21.7,3.9, IOR=-3/
&DEVC ID='SZ2_DT_1/8.20_1', QUANTITY='ADIABATIC SURFACE TEMPERATURE', XYZ=45.7,24.9,3.9, IOR=-3/
&DEVC ID='SZ2_DT_1/-1.20_1', QUANTITY='ADIABATIC SURFACE TEMPERATURE', XYZ=45.7,15.5,2.5, IOR=-3/
&DEVC ID='SZ2_DT_1/-1.60_1', QUANTITY='ADIABATIC SURFACE TEMPERATURE', XYZ=45.7,15.1,2.5, IOR=-3/
&DEVC ID='SZ2_DT_1/-2.00_1', QUANTITY='ADIABATIC SURFACE TEMPERATURE', XYZ=45.7,14.7,2.5, IOR=-3/
&DEVC ID='SZ2_DT_1/-2.40_1', QUANTITY='ADIABATIC SURFACE TEMPERATURE', XYZ=45.7,14.3,2.5, IOR=-3/
&DEVC ID='SZ2_DT_1/-2.80_1', QUANTITY='ADIABATIC SURFACE TEMPERATURE', XYZ=45.7,13.9,2.5, IOR=-3/
&DEVC ID='SZ2_DT_1/-3.20_1', QUANTITY='ADIABATIC SURFACE TEMPERATURE', XYZ=45.7,13.5,2.5, IOR=-3/
&DEVC ID='SZ2_DT_1/-3.60_1', QUANTITY='ADIABATIC SURFACE TEMPERATURE', XYZ=45.7,13.1,2.5, IOR=-3/
&DEVC ID='SZ2_DT_1/-4.00_2', QUANTITY='ADIABATIC SURFACE TEMPERATURE', XYZ=45.7,12.7,2.5, IOR=-3/
&DEVC ID='SZ2_DT_1/-5.00_1', QUANTITY='ADIABATIC SURFACE TEMPERATURE', XYZ=45.7,11.7,2.5, IOR=-3/
&DEVC ID='SZ2_DT_1/-8.20_1', QUANTITY='ADIABATIC SURFACE TEMPERATURE', XYZ=45.7,8.5,2.5, IOR=-3/
&DEVC ID='SZ2_DT_2/1.20_1', QUANTITY='ADIABATIC SURFACE TEMPERATURE', XYZ=48.1,17.9,3.9, IOR=-3/
&DEVC ID='SZ2_DT_2/1.60_1', QUANTITY='ADIABATIC SURFACE TEMPERATURE', XYZ=48.1,18.3,3.9, IOR=-3/
&DEVC ID='SZ2_DT_2/2.00_1', QUANTITY='ADIABATIC SURFACE TEMPERATURE', XYZ=48.1,18.7,3.9, IOR=-3/
&DEVC ID='SZ2_DT_2/2.40_1', QUANTITY='ADIABATIC SURFACE TEMPERATURE', XYZ=48.1,19.1,3.9, IOR=-3/
&DEVC ID='SZ2_DT_2/2.80_1', QUANTITY='ADIABATIC SURFACE TEMPERATURE', XYZ=48.1,19.5,3.9, IOR=-3/
&DEVC ID='SZ2_DT_2/3.20_1', QUANTITY='ADIABATIC SURFACE TEMPERATURE', XYZ=48.1,19.9,3.9, IOR=-3/
&DEVC ID='SZ2_DT_2/3.60_1', QUANTITY='ADIABATIC SURFACE TEMPERATURE', XYZ=48.1,20.3,3.9, IOR=-3/
&DEVC ID='SZ2_DT_2/4.00_1', QUANTITY='ADIABATIC SURFACE TEMPERATURE', XYZ=48.1,20.7,3.9, IOR=-3/
&DEVC ID='SZ2_DT_2/5.00_1', QUANTITY='ADIABATIC SURFACE TEMPERATURE', XYZ=48.1,21.7,3.9, IOR=-3/
&DEVC ID='SZ2_DT_2/8.20_1', QUANTITY='ADIABATIC SURFACE TEMPERATURE', XYZ=48.1,24.9,3.9, IOR=-3/
&DEVC ID='SZ2_DT_2/-1.20_1', QUANTITY='ADIABATIC SURFACE TEMPERATURE', XYZ=48.1,15.5,2.5, IOR=-3/
&DEVC ID='SZ2_DT_2/-1.60_1', QUANTITY='ADIABATIC SURFACE TEMPERATURE', XYZ=48.1,15.1,2.5, IOR=-3/
&DEVC ID='SZ2_DT_2/-2.00_1', QUANTITY='ADIABATIC SURFACE TEMPERATURE', XYZ=48.1,14.7,2.5, IOR=-3/
&DEVC ID='SZ2_DT_2/-2.40_1', QUANTITY='ADIABATIC SURFACE TEMPERATURE', XYZ=48.1,14.3,2.5, IOR=-3/
&DEVC ID='SZ2_DT_2/-2.80_1', QUANTITY='ADIABATIC SURFACE TEMPERATURE', XYZ=48.1,13.9,2.5, IOR=-3/
&DEVC ID='SZ2_DT_2/-3.20_1', QUANTITY='ADIABATIC SURFACE TEMPERATURE', XYZ=48.1,13.5,2.5, IOR=-3/
&DEVC ID='SZ2_DT_2/-3.60_1', QUANTITY='ADIABATIC SURFACE TEMPERATURE', XYZ=48.1,13.1,2.5, IOR=-3/
&DEVC ID='SZ2_DT_2/-4.00_2', QUANTITY='ADIABATIC SURFACE TEMPERATURE', XYZ=48.1,12.7,2.5, IOR=-3/
&DEVC ID='SZ2_DT_2/-5.00_1', QUANTITY='ADIABATIC SURFACE TEMPERATURE', XYZ=48.1,11.7,2.5, IOR=-3/
&DEVC ID='SZ2_DT_2/-8.20_1', QUANTITY='ADIABATIC SURFACE TEMPERATURE', XYZ=48.1,8.5,2.5, IOR=-3/
&DEVC ID='SZ2_DT_3/1.20_1', QUANTITY='ADIABATIC SURFACE TEMPERATURE', XYZ=50.7,17.9,3.9, IOR=-3/
&DEVC ID='SZ2_DT_3/1.60_1', QUANTITY='ADIABATIC SURFACE TEMPERATURE', XYZ=50.7,18.3,3.9, IOR=-3/
&DEVC ID='SZ2_DT_3/2.00_1', QUANTITY='ADIABATIC SURFACE TEMPERATURE', XYZ=50.7,18.7,3.9, IOR=-3/
&DEVC ID='SZ2_DT_3/2.40_1', QUANTITY='ADIABATIC SURFACE TEMPERATURE', XYZ=50.7,19.1,3.9, IOR=-3/
&DEVC ID='SZ2_DT_3/2.80_1', QUANTITY='ADIABATIC SURFACE TEMPERATURE', XYZ=50.7,19.5,3.9, IOR=-3/
&DEVC ID='SZ2_DT_3/3.20_1', QUANTITY='ADIABATIC SURFACE TEMPERATURE', XYZ=50.7,19.9,3.9, IOR=-3/
&DEVC ID='SZ2_DT_3/3.60_1', QUANTITY='ADIABATIC SURFACE TEMPERATURE', XYZ=50.7,20.3,3.9, IOR=-3/
&DEVC ID='SZ2_DT_3/4.00_1', QUANTITY='ADIABATIC SURFACE TEMPERATURE', XYZ=50.7,20.7,3.9, IOR=-3/
&DEVC ID='SZ2_DT_3/5.00_1', QUANTITY='ADIABATIC SURFACE TEMPERATURE', XYZ=50.7,21.7,3.9, IOR=-3/
&DEVC ID='SZ2_DT_3/8.20_1', QUANTITY='ADIABATIC SURFACE TEMPERATURE', XYZ=50.7,24.9,3.9, IOR=-3/
&DEVC ID='SZ2_DT_3/-1.20_1', QUANTITY='ADIABATIC SURFACE TEMPERATURE', XYZ=50.7,15.5,2.5, IOR=-3/
&DEVC ID='SZ2_DT_3/-1.60_1', QUANTITY='ADIABATIC SURFACE TEMPERATURE', XYZ=50.7,15.1,2.5, IOR=-3/
&DEVC ID='SZ2_DT_3/-2.00_1', QUANTITY='ADIABATIC SURFACE TEMPERATURE', XYZ=50.7,14.7,2.5, IOR=-3/
&DEVC ID='SZ2_DT_3/-2.40_1', QUANTITY='ADIABATIC SURFACE TEMPERATURE', XYZ=50.7,14.3,2.5, IOR=-3/
&DEVC ID='SZ2_DT_3/-2.80_1', QUANTITY='ADIABATIC SURFACE TEMPERATURE', XYZ=50.7,13.9,2.5, IOR=-3/
&DEVC ID='SZ2_DT_3/-3.20_1', QUANTITY='ADIABATIC SURFACE TEMPERATURE', XYZ=50.7,13.5,2.5, IOR=-3/
&DEVC ID='SZ2_DT_3/-5.00_1', QUANTITY='ADIABATIC SURFACE TEMPERATURE', XYZ=50.7,11.7,2.5, IOR=-3/
&DEVC ID='SZ2_DT_3/-8.20_1', QUANTITY='ADIABATIC SURFACE TEMPERATURE', XYZ=50.7,8.5,2.5, IOR=-3/
&DEVC ID='SZ2_DT_3/-3.60_1', QUANTITY='ADIABATIC SURFACE TEMPERATURE', XYZ=50.7,13.1,2.5, IOR=-3/
&DEVC ID='SZ2_DT_3/-4.00_1', QUANTITY='ADIABATIC SURFACE TEMPERATURE', XYZ=50.7,12.7,2.5, IOR=-3/
&DEVC ID='VAN_130', QUANTITY='TEMPERATURE', XYZ=41.9,13.7,1.7/
&DEVC ID='VAN_170', QUANTITY='TEMPERATURE', XYZ=41.9,13.7,2.1/
&DEVC ID='VAN_210', QUANTITY='TEMPERATURE', XYZ=41.9,13.7,2.5/
&DEVC ID='PKW1_130', QUANTITY='TEMPERATURE', XYZ=44.5,13.7,1.7/
&DEVC ID='PKW1_150', QUANTITY='TEMPERATURE', XYZ=44.5,13.7,1.9/
&DEVC ID='PKW1_210', QUANTITY='TEMPERATURE', XYZ=44.5,13.7,2.5/
&DEVC ID='PKW3_130', QUANTITY='TEMPERATURE', XYZ=41.9,19.7,3.1/
&DEVC ID='PKW3_150', QUANTITY='TEMPERATURE', XYZ=41.9,19.7,3.3/
&DEVC ID='PKW3_210', QUANTITY='TEMPERATURE', XYZ=41.9,19.7,3.9/
&DEVC ID='PKW2_130', QUANTITY='TEMPERATURE', XYZ=44.5,19.7,3.1/
&DEVC ID='PKW2_150', QUANTITY='TEMPERATURE', XYZ=44.5,19.7,3.3/
&DEVC ID='PKW2_210', QUANTITY='TEMPERATURE', XYZ=44.5,19.7,3.9/

&MATL ID='CONCRETE',
      FYI='Stahlbeton C30-C37 WU',
      SPECIFIC_HEAT=1.0,
      CONDUCTIVITY=2.1,
      DENSITY=2400.0/
&MATL ID='STEEL',
      FYI='Drysdale, Intro to Fire Dynamics - ATF NIST Multi-Floor Validation',
      SPECIFIC_HEAT=0.46,
      CONDUCTIVITY=45.8,
      DENSITY=7850.0,
      EMISSIVITY=95.0/
&MATL ID='STEEL03',
      FYI='Drysdale, Intro to Fire Dynamics - ATF NIST Multi-Floor Validation',
      SPECIFIC_HEAT=0.46,
      CONDUCTIVITY=45.8,
      DENSITY=7850.0,
      EMISSIVITY=0.95/

&SURF ID='ADIABATIC',
      COLOR='GRAY 80',
      ADIABATIC=.TRUE./
&SURF ID='BETON',
      COLOR='GRAY 64',
      MATL_ID(1,1)='CONCRETE',
      MATL_MASS_FRACTION(1,1)=1.0,
      THICKNESS(1)=0.1/
&SURF ID='STAHL',
      COLOR='LIGHT STEEL BLUE 2',
      MATL_ID(1,1)='STEEL',
      MATL_MASS_FRACTION(1,1)=1.0,
      THICKNESS(1)=0.05/
&SURF ID='CAR_BODY02',
      FYI='Properties completely fabricated',
      COLOR='GRAY 40',
      BURN_AWAY=.TRUE.,
      MATL_ID(1,1)='STEEL03',
      MATL_MASS_FRACTION(1,1)=1.0,
      THICKNESS(1)=1.2E-3/
&SURF ID='BURNER1_PKW1',
      COLOR='RED',
      HRRPUA=1921.2963,
      RAMP_Q='BURNER1_PKW1_RAMP_Q'/
&RAMP ID='BURNER1_PKW1_RAMP_Q', T=0.0, F=0.0/
&RAMP ID='BURNER1_PKW1_RAMP_Q', T=240.0, F=0.17/
&RAMP ID='BURNER1_PKW1_RAMP_Q', T=720.0, F=0.17/
&RAMP ID='BURNER1_PKW1_RAMP_Q', T=780.0, F=0.17/
&RAMP ID='BURNER1_PKW1_RAMP_Q', T=960.0, F=0.17/
&RAMP ID='BURNER1_PKW1_RAMP_Q', T=1020.0, F=0.23/
&RAMP ID='BURNER1_PKW1_RAMP_Q', T=1320.0, F=0.54/
&RAMP ID='BURNER1_PKW1_RAMP_Q', T=1440.0, F=0.66/
&RAMP ID='BURNER1_PKW1_RAMP_Q', T=1500.0, F=1.0/
&RAMP ID='BURNER1_PKW1_RAMP_Q', T=1620.0, F=0.54/
&RAMP ID='BURNER1_PKW1_RAMP_Q', T=1680.0, F=0.5/
&RAMP ID='BURNER1_PKW1_RAMP_Q', T=1740.0, F=0.47/
&RAMP ID='BURNER1_PKW1_RAMP_Q', T=1860.0, F=0.39/
&RAMP ID='BURNER1_PKW1_RAMP_Q', T=2040.0, F=0.27/
&RAMP ID='BURNER1_PKW1_RAMP_Q', T=2160.0, F=0.2/
&RAMP ID='BURNER1_PKW1_RAMP_Q', T=2220.0, F=0.16/
&RAMP ID='BURNER1_PKW1_RAMP_Q', T=2280.0, F=0.12/
&RAMP ID='BURNER1_PKW1_RAMP_Q', T=2400.0, F=0.11/
&RAMP ID='BURNER1_PKW1_RAMP_Q', T=2460.0, F=0.11/
&RAMP ID='BURNER1_PKW1_RAMP_Q', T=2520.0, F=0.1/
&RAMP ID='BURNER1_PKW1_RAMP_Q', T=2580.0, F=0.1/
&RAMP ID='BURNER1_PKW1_RAMP_Q', T=2760.0, F=0.09/
&RAMP ID='BURNER1_PKW1_RAMP_Q', T=2880.0, F=0.08/
&RAMP ID='BURNER1_PKW1_RAMP_Q', T=2940.0, F=0.08/
&RAMP ID='BURNER1_PKW1_RAMP_Q', T=3000.0, F=0.07/
&RAMP ID='BURNER1_PKW1_RAMP_Q', T=3120.0, F=0.07/
&RAMP ID='BURNER1_PKW1_RAMP_Q', T=3180.0, F=0.06/
&RAMP ID='BURNER1_PKW1_RAMP_Q', T=3240.0, F=0.06/
&RAMP ID='BURNER1_PKW1_RAMP_Q', T=3300.0, F=0.06/
&RAMP ID='BURNER1_PKW1_RAMP_Q', T=3480.0, F=0.04/
&RAMP ID='BURNER1_PKW1_RAMP_Q', T=3600.0, F=0.04/
&RAMP ID='BURNER1_PKW1_RAMP_Q', T=3660.0, F=0.03/
&RAMP ID='BURNER1_PKW1_RAMP_Q', T=3720.0, F=0.03/
&RAMP ID='BURNER1_PKW1_RAMP_Q', T=3840.0, F=0.02/
&RAMP ID='BURNER1_PKW1_RAMP_Q', T=3900.0, F=0.02/
&RAMP ID='BURNER1_PKW1_RAMP_Q', T=3960.0, F=0.01/
&RAMP ID='BURNER1_PKW1_RAMP_Q', T=4020.0, F=0.01/
&RAMP ID='BURNER1_PKW1_RAMP_Q', T=4200.0, F=0.0/
&SURF ID='BURNER2_VAN',
      COLOR='RED',
      HRRPUA=3846.153846,
      RAMP_Q='BURNER2_VAN_RAMP_Q'/
&RAMP ID='BURNER2_VAN_RAMP_Q', T=0.0, F=0.0/
&RAMP ID='BURNER2_VAN_RAMP_Q', T=240.0, F=0.0/
&RAMP ID='BURNER2_VAN_RAMP_Q', T=720.0, F=0.0/
&RAMP ID='BURNER2_VAN_RAMP_Q', T=780.0, F=0.2/
&RAMP ID='BURNER2_VAN_RAMP_Q', T=960.0, F=0.8/
&RAMP ID='BURNER2_VAN_RAMP_Q', T=1020.0, F=1.0/
&RAMP ID='BURNER2_VAN_RAMP_Q', T=1320.0, F=1.0/
&RAMP ID='BURNER2_VAN_RAMP_Q', T=1440.0, F=1.0/
&RAMP ID='BURNER2_VAN_RAMP_Q', T=1500.0, F=1.0/
&RAMP ID='BURNER2_VAN_RAMP_Q', T=1620.0, F=1.0/
&RAMP ID='BURNER2_VAN_RAMP_Q', T=1680.0, F=0.9/
&RAMP ID='BURNER2_VAN_RAMP_Q', T=1740.0, F=0.8/
&RAMP ID='BURNER2_VAN_RAMP_Q', T=1860.0, F=0.6/
&RAMP ID='BURNER2_VAN_RAMP_Q', T=2040.0, F=0.3/
&RAMP ID='BURNER2_VAN_RAMP_Q', T=2160.0, F=0.1/
&RAMP ID='BURNER2_VAN_RAMP_Q', T=2220.0, F=0.0/
&SURF ID='BURNER3_PKW2',
      COLOR='RED',
      HRRPUA=1921.2963,
      RAMP_Q='BURNER3_PKW2_RAMP_Q'/