Frap_303a_FDS674_M32_BO-1_v01f2.fds
Generated by PyroSim - Version 2020.4.0902
17.11.2020 16:00:19

&HEAD CHID='Frap_303a_FDS674_M32_BO-1_v01f2', TITLE='Flughafen Frankfurt, Flugsteig A-West, Wurzel'/
&TIME T_END=1200.0/
&DUMP COLUMN_DUMP_LIMIT=.TRUE., DT_PL3D=300.0, DT_RESTART=300.0, DT_SL3D=0.25, NFRAMES=600, WRITE_XYZ=.TRUE., PLOT3D_QUANTITY='VISIBILITY','U-VELOCITY','V-VELOCITY','W-VELOCITY','TEMPERATURE'/
&MISC Y_O2_INFTY=0.23, VISIBILITY_FACTOR=5.0/

&MESH ID='Mesh-a-a-a-a', IJK=70,94,40, XB=94.25,103.0,8.5,20.25,0.0,5.0/
&MESH ID='Mesh-a-a-a-b', IJK=70,94,40, XB=103.0,111.75,8.5,20.25,0.0,5.0/
&MESH ID='Mesh-a-a-b-a', IJK=70,94,40, XB=94.25,103.0,20.25,32.0,0.0,5.0/
&MESH ID='Mesh-a-a-b-b', IJK=70,94,40, XB=103.0,111.75,20.25,32.0,0.0,5.0/
&MESH ID='Mesh-a-a-c-a', IJK=70,94,40, XB=94.25,103.0,32.0,43.75,0.0,5.0/
&MESH ID='Mesh-a-a-c-b', IJK=70,94,40, XB=103.0,111.75,32.0,43.75,0.0,5.0/
&MESH ID='Mesh-a-a-d-a', IJK=70,93,40, XB=94.25,103.0,43.75,55.375,0.0,5.0/
&MESH ID='Mesh-a-a-d-b', IJK=70,93,40, XB=103.0,111.75,43.75,55.375,0.0,5.0/
&MESH ID='Mesh-a-b-a-a', IJK=70,94,40, XB=111.75,120.5,8.5,20.25,0.0,5.0/
&MESH ID='Mesh-a-b-a-b', IJK=70,94,40, XB=120.5,129.25,8.5,20.25,0.0,5.0/
&MESH ID='Mesh-a-b-b-a', IJK=70,94,40, XB=111.75,120.5,20.25,32.0,0.0,5.0/
&MESH ID='Mesh-a-b-b-b', IJK=70,94,40, XB=120.5,129.25,20.25,32.0,0.0,5.0/
&MESH ID='Mesh-a-b-c-a', IJK=70,94,40, XB=111.75,120.5,32.0,43.75,0.0,5.0/
&MESH ID='Mesh-a-b-c-b', IJK=70,94,40, XB=120.5,129.25,32.0,43.75,0.0,5.0/
&MESH ID='Mesh-a-b-d-a', IJK=70,93,40, XB=111.75,120.5,43.75,55.375,0.0,5.0/
&MESH ID='Mesh-a-b-d-b', IJK=70,93,40, XB=120.5,129.25,43.75,55.375,0.0,5.0/
&MESH ID='Mesh-b-a-a-a', IJK=70,94,40, XB=129.25,138.0,8.5,20.25,0.0,5.0/
&MESH ID='Mesh-b-a-a-b', IJK=70,94,40, XB=138.0,146.75,8.5,20.25,0.0,5.0/
&MESH ID='Mesh-b-a-b-a', IJK=70,94,40, XB=129.25,138.0,20.25,32.0,0.0,5.0/
&MESH ID='Mesh-b-a-b-b', IJK=70,94,40, XB=138.0,146.75,20.25,32.0,0.0,5.0/
&MESH ID='Mesh-b-a-c-a', IJK=70,94,40, XB=129.25,138.0,32.0,43.75,0.0,5.0/
&MESH ID='Mesh-b-a-c-b', IJK=70,94,40, XB=138.0,146.75,32.0,43.75,0.0,5.0/
&MESH ID='Mesh-b-a-d-a', IJK=70,93,40, XB=129.25,138.0,43.75,55.375,0.0,5.0/
&MESH ID='Mesh-b-a-d-b', IJK=70,93,40, XB=138.0,146.75,43.75,55.375,0.0,5.0/
&MESH ID='Mesh-b-b-a-a', IJK=70,94,40, XB=146.75,155.5,8.5,20.25,0.0,5.0/
&MESH ID='Mesh-b-b-a-b', IJK=70,94,40, XB=155.5,164.25,8.5,20.25,0.0,5.0/
&MESH ID='Mesh-b-b-b-a', IJK=70,94,40, XB=146.75,155.5,20.25,32.0,0.0,5.0/
&MESH ID='Mesh-b-b-b-b', IJK=70,94,40, XB=155.5,164.25,20.25,32.0,0.0,5.0/
&MESH ID='Mesh-b-b-c-a', IJK=70,94,40, XB=146.75,155.5,32.0,43.75,0.0,5.0/
&MESH ID='Mesh-b-b-c-b', IJK=70,94,40, XB=155.5,164.25,32.0,43.75,0.0,5.0/
&MESH ID='Mesh-b-b-d-a', IJK=70,93,40, XB=146.75,155.5,43.75,55.375,0.0,5.0/
&MESH ID='Mesh-b-b-d-b', IJK=70,93,40, XB=155.5,164.25,43.75,55.375,0.0,5.0/


&REAC ID='MIXTURE',
      FYI='Mischbrandlast',
      FUEL='REAC_FUEL',
      C=1.0,
      H=1.2,
      O=0.254,
      N=0.0508,
      CO_YIELD=0.033997,
      SOOT_YIELD=0.09,
      HEAT_OF_COMBUSTION=2.3632E4,
      RADIATIVE_FRACTION=0.3/

&DEVC ID='l_4', QUANTITY='VOLUME FLOW', XB=121.75,122.0,1.0,55.0,4.0,4.0/
&DEVC ID='l_5', QUANTITY='VOLUME FLOW', XB=133.5,133.75,12.5,55.0,4.0,4.0/
&DEVC ID='l_6', QUANTITY='VOLUME FLOW', XB=136.0,136.25,14.75,55.0,4.0,4.0/
&DEVC ID='l_7', QUANTITY='VOLUME FLOW', XB=146.5,146.75,25.5,55.0,4.0,4.0/
&DEVC ID='l_8', QUANTITY='VOLUME FLOW', XB=149.0,149.25,27.75,55.0,4.0,4.0/
&DEVC ID='l_9', QUANTITY='VOLUME FLOW', XB=159.75,160.0,38.5,47.25,4.0,4.0/
&DEVC ID='q_2', QUANTITY='VOLUME FLOW', XB=122.0,127.0,54.75,55.0,4.0,4.0/
&DEVC ID='q_3', QUANTITY='VOLUME FLOW', XB=128.5,133.5,54.75,55.0,4.0,4.0/
&DEVC ID='q_4', QUANTITY='VOLUME FLOW', XB=136.25,140.75,54.75,55.0,4.0,4.0/
&DEVC ID='q_5', QUANTITY='VOLUME FLOW', XB=142.0,146.5,54.75,55.0,4.0,4.0/
&DEVC ID='nach 2', QUANTITY='TEMPERATURE', XYZ=108.0,13.0,4.0/
&DEVC ID='vor 3', QUANTITY='TEMPERATURE', XYZ=118.8,13.0,4.0/

&MATL ID='BETON',
      FYI='Verfahrenstechnik',
      SPECIFIC_HEAT=1.05,
      CONDUCTIVITY=1.72,
      DENSITY=2500.0/

&SURF ID='BETON',
      COLOR='GRAY',
      DEFAULT=.TRUE.,
      BACKING='VOID',
      MATL_ID(1,1)='BETON',
      MATL_MASS_FRACTION(1,1)=1.0,
      THICKNESS(1)=0.2,
      GEOMETRY='CARTESIAN',
      LENGTH=0.0,
      WIDTH=0.0/
&SURF ID='burner',
      COLOR='BLACK',
      HRRPUA=600.0,
      TAU_Q=-60.0/
&SURF ID='Drall_l_4',
      COLOR='RED',
      VOLUME_FLOW=4.291/
&SURF ID='Drall_l_5',
      COLOR='RED',
      VOLUME_FLOW=3.773133/
&SURF ID='Drall_l_6',
      COLOR='RED',
      VOLUME_FLOW=3.773133/
&SURF ID='Drall_l_7',
      COLOR='RED',
      VOLUME_FLOW=2.8607/
&SURF ID='Drall_l_8',
      COLOR='RED',
      VOLUME_FLOW=2.614/
&SURF ID='Drall_l_9',
      COLOR='RED',
      VOLUME_FLOW=0.814/
&SURF ID='Drall_q_2',
      COLOR='RED',
      VOLUME_FLOW=0.49322/
&SURF ID='Drall_q_3',
      COLOR='RED',
      VOLUME_FLOW=0.49322/
&SURF ID='Drall_q_4',
      COLOR='RED',
      VOLUME_FLOW=0.4439/
&SURF ID='Drall_q_5',
      COLOR='RED',
      VOLUME_FLOW=0.4439/

&OBST ID='4,125m2', XB=126.5,128.0,34.5,37.25,0.0,1.0, SURF_IDS='burner','INERT','INERT'/ 
&OBST ID='l_0', XB=92.5,93.0,0.0,55.0,3.5,4.5, SURF_ID='BETON'/ 
&OBST ID='Obstruction #1', XB=93.0,93.5,0.0,55.0,3.5,4.0, SURF_ID='BETON'/ 
&OBST ID='l_1', XB=105.0,105.5,0.0,55.0,3.5,4.5, SURF_ID='BETON'/ 
&OBST ID='Obstruction #2', XB=104.5,105.0,0.0,55.0,3.5,4.0, SURF_ID='BETON'/ 
&OBST ID='l_2', XB=106.75,107.25,0.0,55.0,3.5,4.5, SURF_ID='BETON'/ 
&OBST ID='Obstruction #3', XB=107.25,107.75,0.0,55.0,3.5,4.0, SURF_ID='BETON'/ 
&OBST ID='Obstruction #4', XB=109.25,109.5,15.25,32.5,3.5,4.0, SURF_ID='BETON'/ 
&OBST ID='l_3', XB=119.0,119.5,0.0,55.0,3.5,4.0, SURF_ID='BETON'/ 
&OBST ID='Obstruction #5', XB=119.5,120.0,0.0,55.0,3.5,4.5, SURF_ID='BETON'/ 
&OBST ID='l_4', XB=121.25,121.75,0.0,55.0,3.5,4.5, SURF_ID='BETON'/ 
&OBST ID='l_4', XB=121.75,122.25,0.0,55.0,3.5,4.0, SURF_ID='BETON'/ 
&OBST ID='l_5', XB=133.75,134.25,11.5,55.0,3.5,4.5, SURF_ID='BETON'/ 
&OBST ID='Obstruction #6', XB=133.25,133.75,11.5,55.0,3.5,4.0, SURF_ID='BETON'/ 
&OBST ID='l_6', XB=135.5,136.0,11.5,55.0,3.5,4.5, SURF_ID='BETON'/ 
&OBST ID='Obstruction #7', XB=136.0,136.5,11.5,55.0,3.5,4.0, SURF_ID='BETON'/ 
&OBST ID='l_7', XB=146.75,147.25,25.5,55.0,3.5,4.5, SURF_ID='BETON'/ 
&OBST ID='Obstruction #8', XB=146.25,146.75,25.5,55.0,3.5,4.0, SURF_ID='BETON'/ 
&OBST ID='l_8', XB=148.5,149.0,25.5,55.0,3.5,4.5, SURF_ID='BETON'/ 
&OBST ID='Obstruction #9', XB=149.0,149.5,25.5,55.0,3.5,4.0, SURF_ID='BETON'/ 
&OBST ID='l_9', XB=160.0,160.5,37.0,55.0,3.5,4.5, SURF_ID='BETON'/ 
&OBST ID='Obstruction #10', XB=159.5,160.0,37.0,55.0,3.5,4.0, SURF_ID='BETON'/ 
&OBST ID='q_1', XB=99.75,104.75,54.5,55.0,3.5,4.0, SURF_ID='BETON'/ 
&OBST ID='q_2', XB=122.0,127.0,54.5,55.0,3.5,4.0, SURF_ID='BETON'/ 
&OBST ID='q_3', XB=128.5,133.5,54.5,55.0,3.5,4.0, SURF_ID='BETON'/ 
&OBST ID='q_4', XB=136.25,140.75,54.5,55.0,3.5,4.0, SURF_ID='BETON'/ 
&OBST ID='q_5', XB=142.0,146.5,54.5,55.0,3.5,4.0, SURF_ID='BETON'/ 
&OBST ID='Obstruction #11', XB=91.25,92.5,0.0,55.0,3.5,5.0, SURF_ID='BETON'/ 
&OBST ID='Obstruction #12', XB=105.5,106.75,0.0,55.0,3.5,5.0, SURF_ID='BETON'/ 
&OBST ID='Obstruction #13', XB=120.0,121.25,0.0,55.0,3.5,5.0, SURF_ID='BETON'/ 
&OBST ID='Obstruction #14', XB=134.25,135.5,0.0,55.0,3.5,5.0, SURF_ID='BETON'/ 
&OBST ID='Obstruction #15', XB=147.25,148.5,0.0,55.0,3.5,5.0, SURF_ID='BETON'/ 
&OBST ID='Obstruction #16', XB=160.5,161.25,0.0,55.0,3.5,5.0, SURF_ID='BETON'/ 
&OBST ID='W', XB=-0.25,153.25,55.0,55.75,-0.25,5.0, SURF_ID='BETON'/ 
&OBST ID='W', XB=106.5,106.75,51.0,55.25,-0.25,5.0, SURF_ID='BETON'/ 
&OBST ID='W', XB=106.5,120.875,51.0,51.25,-0.25,5.0, SURF_ID='BETON'/ 
&OBST ID='W', XB=120.625,120.875,51.0,55.25,-0.25,5.0, SURF_ID='BETON'/ 
&OBST ID='RS', XB=120.875,121.0,0.0,55.25,2.5,5.0, RGB=255,0,51, SURF_ID='BETON'/ 
&OBST ID='W A', XB=108.75,109.25,17.5,28.0,2.5,5.0, SURF_ID='BETON'/ 
&OBST ID='W A', XB=108.5,109.0,28.0,29.0,2.5,5.0, SURF_ID='BETON'/ 
&OBST ID='W A', XB=108.25,108.75,29.0,30.0,2.5,5.0, SURF_ID='BETON'/ 
&OBST ID='W A', XB=108.0,108.5,30.0,30.5,2.5,5.0, SURF_ID='BETON'/ 
&OBST ID='W A', XB=107.75,108.25,30.5,31.0,2.5,5.0, SURF_ID='BETON'/ 
&OBST ID='W A', XB=107.5,108.0,31.0,31.5,2.5,5.0, SURF_ID='BETON'/ 
&OBST ID='W A', XB=107.25,107.75,31.5,32.0,2.5,5.0, SURF_ID='BETON'/ 
&OBST ID='W A', XB=107.0,107.5,32.0,32.5,2.5,5.0, SURF_ID='BETON'/ 
&OBST ID='W A', XB=106.75,107.25,32.5,33.0,2.5,5.0, SURF_ID='BETON'/ 
&OBST ID='W A', XB=106.5,107.0,33.0,33.5,2.5,5.0, SURF_ID='BETON'/ 
&OBST ID='W A', XB=106.25,106.75,33.5,34.0,2.5,5.0, SURF_ID='BETON'/ 
&OBST ID='W A', XB=106.0,106.5,34.0,34.5,2.5,5.0, SURF_ID='BETON'/ 
&OBST ID='W A', XB=105.75,106.25,34.5,35.0,2.5,5.0, SURF_ID='BETON'/ 
&OBST ID='W A', XB=105.5,106.0,35.0,35.5,2.5,5.0, SURF_ID='BETON'/ 
&OBST ID='W A', XB=105.25,105.75,35.5,35.75,2.5,5.0, SURF_ID='BETON'/ 
&OBST ID='W A', XB=105.0,105.5,35.75,36.0,2.5,5.0, SURF_ID='BETON'/ 
&OBST ID='W A', XB=104.75,105.25,36.0,36.25,2.5,5.0, SURF_ID='BETON'/ 
&OBST ID='W A', XB=104.5,105.0,36.25,36.5,2.5,5.0, SURF_ID='BETON'/ 
&OBST ID='W A', XB=104.25,104.75,36.5,36.75,2.5,5.0, SURF_ID='BETON'/ 
&OBST ID='W A', XB=104.0,104.5,36.75,37.0,2.5,5.0, SURF_ID='BETON'/ 
&OBST ID='W A', XB=103.75,104.25,37.0,37.25,2.5,5.0, SURF_ID='BETON'/ 
&OBST ID='W A', XB=103.5,104.0,37.25,37.5,2.5,5.0, SURF_ID='BETON'/ 
&OBST ID='W A', XB=103.25,103.75,37.5,37.75,2.5,5.0, SURF_ID='BETON'/ 
&OBST ID='W A', XB=103.0,103.5,37.75,38.0,2.5,5.0, SURF_ID='BETON'/ 
&OBST ID='W A', XB=102.75,103.25,38.0,38.25,2.5,5.0, SURF_ID='BETON'/ 
&OBST ID='W A', XB=102.5,103.0,38.25,38.5,2.5,5.0, SURF_ID='BETON'/ 
&OBST ID='W A', XB=102.25,102.75,38.5,38.75,2.5,5.0, SURF_ID='BETON'/ 
&OBST ID='W A', XB=102.0,102.5,38.75,39.0,2.5,5.0, SURF_ID='BETON'/ 
&OBST ID='W A', XB=101.75,102.25,39.0,39.25,2.5,5.0, SURF_ID='BETON'/ 
&OBST ID='W A', XB=101.25,102.0,39.25,39.5,2.5,5.0, SURF_ID='BETON'/ 
&OBST ID='W A', XB=100.0,101.75,39.5,39.75,2.5,5.0, SURF_ID='BETON'/ 
&OBST ID='W A', XB=98.0,100.25,39.75,40.0,2.5,5.0, SURF_ID='BETON'/ 
&OBST ID='W A', XB=96.25,98.25,40.0,40.25,2.5,5.0, SURF_ID='BETON'/ 
&OBST ID='W A', XB=95.75,96.25,40.25,42.0,-0.25,5.0, SURF_ID='BETON'/ 
&OBST ID='W A', XB=96.0,96.5,42.0,44.0,-0.25,5.0, SURF_ID='BETON'/ 
&OBST ID='W A', XB=96.25,96.75,44.0,46.0,-0.25,5.0, SURF_ID='BETON'/ 
&OBST ID='W A', XB=96.5,97.0,46.0,48.0,-0.25,5.0, SURF_ID='BETON'/ 
&OBST ID='W A', XB=96.75,97.25,48.0,55.0,-0.25,5.0, SURF_ID='BETON'/ 
&OBST ID='W B', XB=126.0,126.5,8.75,9.0,-0.25,5.0, SURF_ID='BETON'/ 
&OBST ID='W B', XB=126.25,126.75,9.0,9.25,-0.25,5.0, SURF_ID='BETON'/ 
&OBST ID='W B', XB=126.5,127.0,9.25,9.5,-0.25,5.0, SURF_ID='BETON'/ 
&OBST ID='W B', XB=126.75,127.25,9.5,9.75,-0.25,5.0, SURF_ID='BETON'/ 
&OBST ID='W B', XB=127.0,127.5,9.75,10.0,-0.25,5.0, SURF_ID='BETON'/ 
&OBST ID='W B', XB=127.25,127.75,10.0,10.25,-0.25,5.0, SURF_ID='BETON'/ 
&OBST ID='W B', XB=127.5,128.0,10.25,10.5,-0.25,5.0, SURF_ID='BETON'/ 
&OBST ID='W B', XB=127.75,128.25,10.5,10.75,-0.25,5.0, SURF_ID='BETON'/ 
&OBST ID='W B', XB=128.0,128.5,10.75,11.0,-0.25,5.0, SURF_ID='BETON'/ 
&OBST ID='W B', XB=128.25,128.75,11.0,11.25,-0.25,5.0, SURF_ID='BETON'/ 
&OBST ID='W B', XB=128.5,129.0,11.25,11.5,-0.25,5.0, SURF_ID='BETON'/ 
&OBST ID='W B', XB=128.75,129.25,11.5,11.75,-0.25,5.0, SURF_ID='BETON'/ 
&OBST ID='W B', XB=129.0,129.5,11.75,12.0,-0.25,5.0, SURF_ID='BETON'/ 
&OBST ID='W B', XB=129.25,129.75,12.0,12.25,-0.25,5.0, SURF_ID='BETON'/ 
&OBST ID='W B', XB=129.5,130.0,12.25,12.5,-0.25,5.0, SURF_ID='BETON'/ 
&OBST ID='W B', XB=129.75,130.25,12.5,12.75,-0.25,5.0, SURF_ID='BETON'/ 
&OBST ID='W B', XB=130.0,130.5,12.75,13.0,-0.25,5.0, SURF_ID='BETON'/ 
&OBST ID='W B', XB=130.25,130.75,13.0,13.25,-0.25,5.0, SURF_ID='BETON'/ 
&OBST ID='W B', XB=130.5,131.0,13.25,13.5,-0.25,5.0, SURF_ID='BETON'/ 
&OBST ID='W B', XB=130.75,131.25,13.5,13.75,-0.25,5.0, SURF_ID='BETON'/ 
&OBST ID='W B', XB=131.0,131.5,13.75,14.0,-0.25,5.0, SURF_ID='BETON'/ 
&OBST ID='W B', XB=131.25,131.75,14.0,14.25,-0.25,5.0, SURF_ID='BETON'/ 
&OBST ID='W B', XB=131.5,132.0,14.25,14.5,-0.25,5.0, SURF_ID='BETON'/ 
&OBST ID='W B', XB=131.75,132.25,14.5,14.75,-0.25,5.0, SURF_ID='BETON'/ 
&OBST ID='W B', XB=132.0,132.5,14.75,15.0,-0.25,5.0, SURF_ID='BETON'/ 
&OBST ID='W B', XB=132.25,132.75,15.0,15.25,-0.25,5.0, SURF_ID='BETON'/ 
&OBST ID='W B', XB=132.5,133.0,15.25,15.5,-0.25,5.0, SURF_ID='BETON'/ 
&OBST ID='W B', XB=132.75,133.25,15.5,15.75,-0.25,5.0, SURF_ID='BETON'/ 
&OBST ID='W B', XB=133.0,133.5,15.75,16.0,-0.25,5.0, SURF_ID='BETON'/ 
&OBST ID='W B', XB=133.25,133.75,16.0,16.25,-0.25,5.0, SURF_ID='BETON'/ 
&OBST ID='W B', XB=133.5,134.0,16.25,16.5,-0.25,5.0, SURF_ID='BETON'/ 
&OBST ID='W B', XB=133.75,134.25,16.5,16.75,-0.25,5.0, SURF_ID='BETON'/ 
&OBST ID='W B', XB=134.0,134.5,16.75,17.0,-0.25,5.0, SURF_ID='BETON'/ 
&OBST ID='W B', XB=134.25,134.75,17.0,17.25,-0.25,5.0, SURF_ID='BETON'/ 
&OBST ID='W B', XB=134.5,135.0,17.25,17.5,-0.25,5.0, SURF_ID='BETON'/ 
&OBST ID='W B', XB=135.0,135.25,17.25,17.5,-0.25,5.0, SURF_ID='BETON'/ 
&OBST ID='W B', XB=135.25,135.5,17.0,17.25,-0.25,5.0, SURF_ID='BETON'/ 
&OBST ID='W B', XB=135.5,135.75,16.75,17.0,-0.25,5.0, SURF_ID='BETON'/ 
&OBST ID='W B', XB=135.75,136.0,16.5,16.75,-0.25,5.0, SURF_ID='BETON'/ 
&OBST ID='W B', XB=136.0,136.25,16.25,16.5,-0.25,5.0, SURF_ID='BETON'/ 
&OBST ID='W B', XB=136.25,136.5,16.0,16.25,-0.25,5.0, SURF_ID='BETON'/ 
&OBST ID='W B', XB=136.5,136.75,15.75,16.0,-0.25,5.0, SURF_ID='BETON'/ 
&OBST ID='W B', XB=136.75,137.0,15.5,15.75,-0.25,5.0, SURF_ID='BETON'/ 
&OBST ID='W B', XB=137.0,137.25,15.25,15.5,-0.25,5.0, SURF_ID='BETON'/ 
&OBST ID='W B', XB=137.25,137.5,15.0,15.25,-0.25,5.0, SURF_ID='BETON'/ 
&OBST ID='W B', XB=137.5,137.75,14.75,15.0,-0.25,5.0, SURF_ID='BETON'/ 
&OBST ID='W B', XB=137.75,138.0,14.5,14.75,-0.25,5.0, SURF_ID='BETON'/ 
&OBST ID='W B', XB=138.0,138.25,14.25,14.5,-0.25,5.0, SURF_ID='BETON'/ 
&OBST ID='W B', XB=138.25,138.5,14.0,14.25,-0.25,5.0, SURF_ID='BETON'/ 
&OBST ID='W B', XB=138.5,138.75,13.75,14.0,-0.25,5.0, SURF_ID='BETON'/ 
&OBST ID='W B', XB=138.75,139.0,13.5,13.75,-0.25,5.0, SURF_ID='BETON'/ 
&OBST ID='W B', XB=139.0,139.25,13.25,13.5,-0.25,5.0, SURF_ID='BETON'/ 
&OBST ID='W B', XB=139.25,139.5,13.0,13.25,-0.25,5.0, SURF_ID='BETON'/ 
&OBST ID='W B', XB=139.5,139.75,12.75,13.0,-0.25,5.0, SURF_ID='BETON'/ 
&OBST ID='W B', XB=139.75,140.25,13.0,13.25,-0.25,5.0, SURF_ID='BETON'/ 
&OBST ID='W B', XB=140.0,140.5,13.25,13.5,-0.25,5.0, SURF_ID='BETON'/ 
&OBST ID='W B', XB=140.25,140.75,13.5,13.75,-0.25,5.0, SURF_ID='BETON'/ 
&OBST ID='W B', XB=140.5,141.0,13.75,14.0,-0.25,5.0, SURF_ID='BETON'/ 
&OBST ID='W B', XB=140.75,141.25,14.0,14.25,-0.25,5.0, SURF_ID='BETON'/ 
&OBST ID='W B', XB=141.0,141.5,14.25,14.5,-0.25,5.0, SURF_ID='BETON'/ 
&OBST ID='W B', XB=141.25,141.75,14.5,14.75,-0.25,5.0, SURF_ID='BETON'/ 
&OBST ID='W B', XB=141.5,142.0,14.75,15.0,-0.25,5.0, SURF_ID='BETON'/ 
&OBST ID='W B', XB=141.75,142.25,15.0,15.25,-0.25,5.0, SURF_ID='BETON'/ 
&OBST ID='W B', XB=142.0,142.5,15.25,15.5,-0.25,5.0, SURF_ID='BETON'/ 
&OBST ID='W B', XB=142.25,142.75,15.5,15.75,-0.25,5.0, SURF_ID='BETON'/ 
&OBST ID='W B', XB=142.5,143.0,15.75,16.0,-0.25,5.0, SURF_ID='BETON'/ 
&OBST ID='W B', XB=142.75,143.25,16.0,16.25,-0.25,5.0, SURF_ID='BETON'/ 
&OBST ID='W B', XB=143.0,143.5,16.25,16.5,-0.25,5.0, SURF_ID='BETON'/ 
&OBST ID='W B', XB=143.25,143.75,16.5,16.75,-0.25,5.0, SURF_ID='BETON'/ 
&OBST ID='W B', XB=143.5,144.0,16.75,17.0,-0.25,5.0, SURF_ID='BETON'/ 
&OBST ID='W B', XB=143.75,144.25,17.0,17.25,-0.25,5.0, SURF_ID='BETON'/ 
&OBST ID='W B', XB=144.0,144.5,17.25,17.5,-0.25,5.0, SURF_ID='BETON'/ 
&OBST ID='W B', XB=144.25,144.75,17.5,17.75,-0.25,5.0, SURF_ID='BETON'/ 
&OBST ID='W B', XB=144.5,145.0,17.75,18.0,-0.25,5.0, SURF_ID='BETON'/ 
&OBST ID='W B', XB=144.75,145.25,18.0,18.25,-0.25,5.0, SURF_ID='BETON'/ 
&OBST ID='W B', XB=142.25,142.5,21.0,21.25,-0.25,5.0, SURF_ID='BETON'/ 
&OBST ID='W B', XB=142.5,142.75,20.75,21.0,-0.25,5.0, SURF_ID='BETON'/ 
&OBST ID='W B', XB=142.75,143.0,20.5,20.75,-0.25,5.0, SURF_ID='BETON'/ 
&OBST ID='W B', XB=143.0,143.25,20.25,20.5,-0.25,5.0, SURF_ID='BETON'/ 
&OBST ID='W B', XB=143.25,143.5,20.0,20.25,-0.25,5.0, SURF_ID='BETON'/ 
&OBST ID='W B', XB=143.5,143.75,19.75,20.0,-0.25,5.0, SURF_ID='BETON'/ 
&OBST ID='W B', XB=143.75,144.0,19.5,19.75,-0.25,5.0, SURF_ID='BETON'/ 
&OBST ID='W B', XB=144.0,144.25,19.25,19.5,-0.25,5.0, SURF_ID='BETON'/ 
&OBST ID='W B', XB=144.25,144.5,19.0,19.25,-0.25,5.0, SURF_ID='BETON'/ 
&OBST ID='W B', XB=144.5,144.75,18.75,19.0,-0.25,5.0, SURF_ID='BETON'/ 
&OBST ID='W B', XB=144.75,145.0,18.5,18.75,-0.25,5.0, SURF_ID='BETON'/ 
&OBST ID='W B', XB=145.0,145.25,18.25,18.5,-0.25,5.0, SURF_ID='BETON'/ 
&OBST ID='W B', XB=142.25,142.75,21.25,21.5,-0.25,5.0, SURF_ID='BETON'/ 
&OBST ID='W B', XB=142.5,143.0,21.5,21.75,-0.25,5.0, SURF_ID='BETON'/ 
&OBST ID='W B', XB=142.75,143.25,21.75,22.0,-0.25,5.0, SURF_ID='BETON'/ 
&OBST ID='W B', XB=143.0,143.5,22.0,22.25,-0.25,5.0, SURF_ID='BETON'/ 
&OBST ID='W B', XB=143.25,143.75,22.25,22.5,-0.25,5.0, SURF_ID='BETON'/ 
&OBST ID='W B', XB=143.5,144.0,22.5,22.75,-0.25,5.0, SURF_ID='BETON'/ 
&OBST ID='W B', XB=143.75,144.25,22.75,23.0,-0.25,5.0, SURF_ID='BETON'/ 
&OBST ID='W B', XB=144.0,144.5,23.0,23.25,-0.25,5.0, SURF_ID='BETON'/ 
&OBST ID='W B', XB=144.25,144.75,23.25,23.5,-0.25,5.0, SURF_ID='BETON'/ 
&OBST ID='W B', XB=144.5,145.0,23.5,23.75,-0.25,5.0, SURF_ID='BETON'/ 
&OBST ID='W B', XB=144.75,145.25,23.75,24.0,-0.25,5.0, SURF_ID='BETON'/ 
&OBST ID='W B', XB=145.0,145.5,24.0,24.25,-0.25,5.0, SURF_ID='BETON'/ 
&OBST ID='W B', XB=145.25,145.75,24.25,24.5,-0.25,5.0, SURF_ID='BETON'/ 
&OBST ID='W B', XB=145.5,146.0,24.5,24.75,-0.25,5.0, SURF_ID='BETON'/ 
&OBST ID='W B', XB=145.75,146.25,24.75,25.0,-0.25,5.0, SURF_ID='BETON'/ 
&OBST ID='W B', XB=146.0,146.5,25.0,25.25,-0.25,5.0, SURF_ID='BETON'/ 
&OBST ID='W B', XB=146.25,146.75,25.25,25.5,-0.25,5.0, SURF_ID='BETON'/ 
&OBST ID='W B', XB=146.5,147.0,25.5,25.75,-0.25,5.0, SURF_ID='BETON'/ 
&OBST ID='W B', XB=146.75,147.25,25.75,26.0,-0.25,5.0, SURF_ID='BETON'/ 
&OBST ID='W B', XB=147.0,147.5,26.0,26.25,-0.25,5.0, SURF_ID='BETON'/ 
&OBST ID='W B', XB=147.25,147.75,26.25,26.5,-0.25,5.0, SURF_ID='BETON'/ 
&OBST ID='W B', XB=147.5,148.0,26.5,26.75,-0.25,5.0, SURF_ID='BETON'/ 
&OBST ID='W B', XB=147.75,148.25,26.75,27.0,-0.25,5.0, SURF_ID='BETON'/ 
&OBST ID='W B', XB=148.0,148.5,27.0,27.25,-0.25,5.0, SURF_ID='BETON'/ 
&OBST ID='W B', XB=148.25,148.75,27.25,27.5,-0.25,5.0, SURF_ID='BETON'/ 
&OBST ID='W B', XB=148.5,149.0,27.5,27.75,-0.25,5.0, SURF_ID='BETON'/ 
&OBST ID='W B', XB=148.75,149.25,27.75,28.0,-0.25,5.0, SURF_ID='BETON'/ 
&OBST ID='W B', XB=149.0,149.5,28.0,28.25,-0.25,5.0, SURF_ID='BETON'/ 
&OBST ID='W B', XB=149.25,149.75,28.25,28.5,-0.25,5.0, SURF_ID='BETON'/ 
&OBST ID='W B', XB=149.5,150.0,28.5,28.75,-0.25,5.0, SURF_ID='BETON'/ 
&OBST ID='W B', XB=149.75,150.25,28.75,29.0,-0.25,5.0, SURF_ID='BETON'/ 
&OBST ID='W B', XB=150.0,150.5,29.0,29.25,-0.25,5.0, SURF_ID='BETON'/ 
&OBST ID='W B', XB=150.25,150.75,29.25,29.5,-0.25,5.0, SURF_ID='BETON'/ 
&OBST ID='W B', XB=150.5,151.0,29.5,29.75,-0.25,5.0, SURF_ID='BETON'/ 
&OBST ID='W B', XB=150.75,151.25,29.75,30.0,-0.25,5.0, SURF_ID='BETON'/ 
&OBST ID='W B', XB=151.0,151.5,30.0,30.25,-0.25,5.0, SURF_ID='BETON'/ 
&OBST ID='W B', XB=151.25,151.75,30.25,30.5,-0.25,5.0, SURF_ID='BETON'/ 
&OBST ID='W B', XB=151.5,152.0,30.5,30.75,-0.25,5.0, SURF_ID='BETON'/ 
&OBST ID='W B', XB=151.75,152.25,30.75,31.0,-0.25,5.0, SURF_ID='BETON'/ 
&OBST ID='W B', XB=152.0,152.5,31.0,31.25,-0.25,5.0, SURF_ID='BETON'/ 
&OBST ID='W B', XB=152.25,152.75,31.25,31.5,-0.25,5.0, SURF_ID='BETON'/ 
&OBST ID='W B', XB=152.5,153.0,31.5,31.75,-0.25,5.0, SURF_ID='BETON'/ 
&OBST ID='W B', XB=152.75,153.25,31.75,32.0,-0.25,5.0, SURF_ID='BETON'/ 
&OBST ID='W B', XB=153.0,153.5,32.0,32.25,-0.25,5.0, SURF_ID='BETON'/ 
&OBST ID='W B', XB=153.25,153.75,32.25,32.5,-0.25,5.0, SURF_ID='BETON'/ 
&OBST ID='W B', XB=153.5,154.0,32.5,32.75,-0.25,5.0, SURF_ID='BETON'/ 
&OBST ID='W B', XB=153.75,154.25,32.75,33.0,-0.25,5.0, SURF_ID='BETON'/ 
&OBST ID='W B', XB=154.0,154.5,33.0,33.25,-0.25,5.0, SURF_ID='BETON'/ 
&OBST ID='W B', XB=154.25,154.75,33.25,33.5,-0.25,5.0, SURF_ID='BETON'/ 
&OBST ID='W B', XB=154.5,155.0,33.5,33.75,-0.25,5.0, SURF_ID='BETON'/ 
&OBST ID='W B', XB=154.75,155.25,33.75,34.0,-0.25,5.0, SURF_ID='BETON'/ 
&OBST ID='W B', XB=155.0,155.5,34.0,34.25,-0.25,5.0, SURF_ID='BETON'/ 
&OBST ID='W B', XB=155.25,155.75,34.25,34.5,-0.25,5.0, SURF_ID='BETON'/ 
&OBST ID='W B', XB=155.5,156.0,34.5,34.75,-0.25,5.0, SURF_ID='BETON'/ 
&OBST ID='W B', XB=155.75,156.25,34.75,35.0,-0.25,5.0, SURF_ID='BETON'/ 
&OBST ID='W B', XB=156.0,156.5,35.0,35.25,-0.25,5.0, SURF_ID='BETON'/ 
&OBST ID='W B', XB=156.25,156.75,35.25,35.5,-0.25,5.0, SURF_ID='BETON'/ 
&OBST ID='W B', XB=156.5,157.0,35.5,35.75,-0.25,5.0, SURF_ID='BETON'/ 
&OBST ID='W B', XB=156.75,157.25,35.75,36.0,-0.25,5.0, SURF_ID='BETON'/ 
&OBST ID='W B', XB=157.0,157.5,36.0,36.25,-0.25,5.0, SURF_ID='BETON'/ 
&OBST ID='W B', XB=157.25,157.75,36.25,36.5,-0.25,5.0, SURF_ID='BETON'/ 
&OBST ID='W B', XB=157.5,158.0,36.5,36.75,-0.25,5.0, SURF_ID='BETON'/ 
&OBST ID='W B', XB=157.75,158.25,36.75,37.0,-0.25,5.0, SURF_ID='BETON'/ 
&OBST ID='W B', XB=158.0,158.5,37.0,37.25,-0.25,5.0, SURF_ID='BETON'/ 
&OBST ID='W B', XB=158.25,158.75,37.25,37.5,-0.25,5.0, SURF_ID='BETON'/ 
&OBST ID='W B', XB=158.5,159.0,37.5,37.75,-0.25,5.0, SURF_ID='BETON'/ 
&OBST ID='W B', XB=158.75,159.25,37.75,38.0,-0.25,5.0, SURF_ID='BETON'/ 
&OBST ID='W B', XB=159.0,159.5,38.0,38.25,-0.25,5.0, SURF_ID='BETON'/ 
&OBST ID='W B', XB=159.25,159.75,38.25,38.5,-0.25,5.0, SURF_ID='BETON'/ 
&OBST ID='W B', XB=159.5,160.0,38.5,38.75,-0.25,5.0, SURF_ID='BETON'/ 
&OBST ID='W B', XB=159.75,160.25,38.75,39.0,-0.25,5.0, SURF_ID='BETON'/ 
&OBST ID='W B', XB=160.0,160.5,39.0,39.25,-0.25,5.0, SURF_ID='BETON'/ 
&OBST ID='W B', XB=160.25,160.75,39.25,39.5,-0.25,5.0, SURF_ID='BETON'/ 
&OBST ID='W B', XB=160.5,161.0,39.5,39.75,-0.25,5.0, SURF_ID='BETON'/ 
&OBST ID='W B', XB=160.75,161.25,39.75,40.0,-0.25,5.0, SURF_ID='BETON'/ 
&OBST ID='W B', XB=161.0,161.5,40.0,40.25,-0.25,5.0, SURF_ID='BETON'/ 
&OBST ID='W B', XB=161.25,161.75,40.25,40.5,-0.25,5.0, SURF_ID='BETON'/ 
&OBST ID='W B', XB=161.5,162.0,40.5,40.75,-0.25,5.0, SURF_ID='BETON'/ 
&OBST ID='W B', XB=161.75,162.25,40.75,41.0,-0.25,5.0, SURF_ID='BETON'/ 
&OBST ID='W B', XB=162.0,162.5,41.0,41.25,-0.25,5.0, SURF_ID='BETON'/ 
&OBST ID='W B', XB=162.25,162.75,41.25,41.5,-0.25,5.0, SURF_ID='BETON'/ 
&OBST ID='W B', XB=162.5,163.0,41.5,41.75,-0.25,5.0, SURF_ID='BETON'/ 
&OBST ID='W B', XB=162.75,163.25,41.75,42.0,-0.25,5.0, SURF_ID='BETON'/ 
&OBST ID='W B', XB=163.0,163.5,42.0,42.25,-0.25,5.0, SURF_ID='BETON'/ 
&OBST ID='W B', XB=163.25,163.75,42.25,42.5,-0.25,5.0, SURF_ID='BETON'/ 
&OBST ID='W B', XB=163.5,164.0,42.5,42.75,-0.25,5.0, SURF_ID='BETON'/ 
&OBST ID='W B', XB=163.75,164.25,42.75,43.0,-0.25,5.0, SURF_ID='BETON'/ 
&OBST ID='W B', XB=164.0,164.5,43.0,43.25,-0.25,5.0, SURF_ID='BETON'/ 
&OBST ID='W B', XB=164.25,164.75,43.25,43.5,-0.25,5.0, SURF_ID='BETON'/ 
&OBST ID='W B', XB=164.5,165.0,43.5,43.75,-0.25,5.0, SURF_ID='BETON'/ 
&OBST ID='W B', XB=152.5,153.0,54.75,55.0,-0.25,5.0, SURF_ID='BETON'/ 
&OBST ID='W B', XB=152.75,153.25,54.5,54.75,-0.25,5.0, SURF_ID='BETON'/ 
&OBST ID='W B', XB=153.0,153.5,54.25,54.5,-0.25,5.0, SURF_ID='BETON'/ 
&OBST ID='W B', XB=153.25,153.75,54.0,54.25,-0.25,5.0, SURF_ID='BETON'/ 
&OBST ID='W B', XB=153.5,154.0,53.75,54.0,-0.25,5.0, SURF_ID='BETON'/ 
&OBST ID='W B', XB=153.75,154.25,53.5,53.75,-0.25,5.0, SURF_ID='BETON'/ 
&OBST ID='W B', XB=154.0,154.5,53.25,53.5,-0.25,5.0, SURF_ID='BETON'/ 
&OBST ID='W B', XB=154.25,154.75,53.0,53.25,-0.25,5.0, SURF_ID='BETON'/ 
&OBST ID='W B', XB=154.5,155.0,52.75,53.0,-0.25,5.0, SURF_ID='BETON'/ 
&OBST ID='W B', XB=154.75,155.25,52.5,52.75,-0.25,5.0, SURF_ID='BETON'/ 
&OBST ID='W B', XB=155.0,155.5,52.25,52.5,-0.25,5.0, SURF_ID='BETON'/ 
&OBST ID='W B', XB=155.25,155.75,52.0,52.25,-0.25,5.0, SURF_ID='BETON'/ 
&OBST ID='W B', XB=155.5,156.0,51.75,52.0,-0.25,5.0, SURF_ID='BETON'/ 
&OBST ID='W B', XB=155.75,156.25,51.5,51.75,-0.25,5.0, SURF_ID='BETON'/ 
&OBST ID='W B', XB=156.0,156.5,51.25,51.5,-0.25,5.0, SURF_ID='BETON'/ 
&OBST ID='W B', XB=156.25,156.75,51.0,51.25,-0.25,5.0, SURF_ID='BETON'/ 
&OBST ID='W B', XB=156.5,157.0,50.75,51.0,-0.25,5.0, SURF_ID='BETON'/ 
&OBST ID='W B', XB=156.75,157.25,50.5,50.75,-0.25,5.0, SURF_ID='BETON'/ 
&OBST ID='W B', XB=157.0,157.5,50.25,50.5,-0.25,5.0, SURF_ID='BETON'/ 
&OBST ID='W B', XB=157.25,157.75,50.0,50.25,-0.25,5.0, SURF_ID='BETON'/ 
&OBST ID='W B', XB=157.5,158.0,49.75,50.0,-0.25,5.0, SURF_ID='BETON'/ 
&OBST ID='W B', XB=157.75,158.25,49.5,49.75,-0.25,5.0, SURF_ID='BETON'/ 
&OBST ID='W B', XB=158.0,158.5,49.25,49.5,-0.25,5.0, SURF_ID='BETON'/ 
&OBST ID='W B', XB=158.25,158.75,49.0,49.25,-0.25,5.0, SURF_ID='BETON'/ 
&OBST ID='W B', XB=158.5,159.0,48.75,49.0,-0.25,5.0, SURF_ID='BETON'/ 
&OBST ID='W B', XB=158.75,159.25,48.5,48.75,-0.25,5.0, SURF_ID='BETON'/ 
&OBST ID='W B', XB=159.0,159.5,48.25,48.5,-0.25,5.0, SURF_ID='BETON'/ 
&OBST ID='W B', XB=159.25,159.75,48.0,48.25,-0.25,5.0, SURF_ID='BETON'/ 
&OBST ID='W B', XB=159.5,160.0,47.75,48.0,-0.25,5.0, SURF_ID='BETON'/ 
&OBST ID='W B', XB=159.75,160.25,47.5,47.75,-0.25,5.0, SURF_ID='BETON'/ 
&OBST ID='W B', XB=160.0,160.5,47.25,47.5,-0.25,5.0, SURF_ID='BETON'/ 
&OBST ID='W B', XB=160.25,160.75,47.0,47.25,-0.25,5.0, SURF_ID='BETON'/ 
&OBST ID='W B', XB=160.5,161.0,46.75,47.0,-0.25,5.0, SURF_ID='BETON'/ 
&OBST ID='W B', XB=160.75,161.25,46.5,46.75,-0.25,5.0, SURF_ID='BETON'/ 
&OBST ID='W B', XB=161.0,161.5,46.25,46.5,-0.25,5.0, SURF_ID='BETON'/ 
&OBST ID='W B', XB=161.25,161.75,46.0,46.25,-0.25,5.0, SURF_ID='BETON'/ 
&OBST ID='W B', XB=161.5,162.0,45.75,46.0,-0.25,5.0, SURF_ID='BETON'/ 
&OBST ID='W B', XB=161.75,162.25,45.5,45.75,-0.25,5.0, SURF_ID='BETON'/ 
&OBST ID='W B', XB=162.0,162.5,45.25,45.5,-0.25,5.0, SURF_ID='BETON'/ 
&OBST ID='W B', XB=162.25,162.75,45.0,45.25,-0.25,5.0, SURF_ID='BETON'/ 
&OBST ID='W B', XB=162.5,163.0,44.75,45.0,-0.25,5.0, SURF_ID='BETON'/ 
&OBST ID='W B', XB=162.75,163.25,44.5,44.75,-0.25,5.0, SURF_ID='BETON'/ 
&OBST ID='W B', XB=163.0,163.5,44.25,44.5,-0.25,5.0, SURF_ID='BETON'/ 
&OBST ID='W B', XB=163.25,163.75,44.0,44.25,-0.25,5.0, SURF_ID='BETON'/ 
&OBST ID='W B', XB=163.5,164.0,43.75,44.0,-0.25,5.0, SURF_ID='BETON'/ 
&OBST ID='W B', XB=163.75,164.25,43.5,43.75,-0.25,5.0, SURF_ID='BETON'/ 
&OBST ID='W B', XB=164.0,164.5,43.25,43.5,-0.25,5.0, SURF_ID='BETON'/ 
&OBST ID='W B', XB=164.25,164.75,43.0,43.25,-0.25,5.0, SURF_ID='BETON'/ 
&OBST ID='W B', XB=164.5,165.0,42.75,43.0,-0.25,5.0, SURF_ID='BETON'/ 
&OBST ID='W C', XB=108.75,109.5,17.25,17.5,-0.25,5.0, SURF_ID='BETON'/ 
&OBST ID='W C', XB=109.25,110.0,17.0,17.25,-0.25,5.0, SURF_ID='BETON'/ 
&OBST ID='W C', XB=109.75,110.5,16.75,17.0,-0.25,5.0, SURF_ID='BETON'/ 
&OBST ID='W C', XB=110.25,111.0,16.5,16.75,-0.25,5.0, SURF_ID='BETON'/ 
&OBST ID='W C', XB=110.75,111.5,16.25,16.5,-0.25,5.0, SURF_ID='BETON'/ 
&OBST ID='W C', XB=111.25,112.0,16.0,16.25,-0.25,5.0, SURF_ID='BETON'/ 
&OBST ID='W C', XB=111.75,112.5,15.75,16.0,-0.25,5.0, SURF_ID='BETON'/ 
&OBST ID='W C', XB=112.25,113.0,15.5,15.75,-0.25,5.0, SURF_ID='BETON'/ 
&OBST ID='W C', XB=112.75,113.5,15.25,15.5,-0.25,5.0, SURF_ID='BETON'/ 
&OBST ID='W C', XB=113.25,114.0,15.0,15.25,-0.25,5.0, SURF_ID='BETON'/ 
&OBST ID='W C', XB=113.75,114.5,14.75,15.0,-0.25,5.0, SURF_ID='BETON'/ 
&OBST ID='W C', XB=114.25,115.0,14.5,14.75,-0.25,5.0, SURF_ID='BETON'/ 
&OBST ID='W C', XB=114.75,115.5,14.25,14.5,-0.25,5.0, SURF_ID='BETON'/ 
&OBST ID='W C', XB=115.25,116.0,14.0,14.25,-0.25,5.0, SURF_ID='BETON'/ 
&OBST ID='W C', XB=115.75,116.5,13.75,14.0,-0.25,5.0, SURF_ID='BETON'/ 
&OBST ID='W C', XB=116.25,117.0,13.5,13.75,-0.25,5.0, SURF_ID='BETON'/ 
&OBST ID='W C', XB=116.75,117.5,13.25,13.5,-0.25,5.0, SURF_ID='BETON'/ 
&OBST ID='W C', XB=117.25,118.0,13.0,13.25,-0.25,5.0, SURF_ID='BETON'/ 
&OBST ID='W C', XB=117.75,118.5,12.75,13.0,-0.25,5.0, SURF_ID='BETON'/ 
&OBST ID='W C', XB=118.25,119.0,12.5,12.75,-0.25,5.0, SURF_ID='BETON'/ 
&OBST ID='W C', XB=118.75,119.5,12.25,12.5,-0.25,5.0, SURF_ID='BETON'/ 
&OBST ID='W C', XB=119.25,120.0,12.0,12.25,-0.25,5.0, SURF_ID='BETON'/ 
&OBST ID='W C', XB=119.75,120.5,11.75,12.0,-0.25,5.0, SURF_ID='BETON'/ 
&OBST ID='W C', XB=120.25,121.0,11.5,11.75,-0.25,5.0, SURF_ID='BETON'/ 
&OBST ID='W C', XB=120.75,121.5,11.25,11.5,-0.25,5.0, SURF_ID='BETON'/ 
&OBST ID='W C', XB=121.25,122.0,11.0,11.25,-0.25,5.0, SURF_ID='BETON'/ 
&OBST ID='W C', XB=121.75,122.5,10.75,11.0,-0.25,5.0, SURF_ID='BETON'/ 
&OBST ID='W C', XB=122.25,123.0,10.5,10.75,-0.25,5.0, SURF_ID='BETON'/ 
&OBST ID='W C', XB=122.75,123.5,10.25,10.5,-0.25,5.0, SURF_ID='BETON'/ 
&OBST ID='W C', XB=123.25,124.0,10.0,10.25,-0.25,5.0, SURF_ID='BETON'/ 
&OBST ID='W C', XB=123.75,124.5,9.75,10.0,-0.25,5.0, SURF_ID='BETON'/ 
&OBST ID='W C', XB=124.25,125.0,9.5,9.75,-0.25,5.0, SURF_ID='BETON'/ 
&OBST ID='W C', XB=124.75,125.5,9.25,9.5,-0.25,5.0, SURF_ID='BETON'/ 
&OBST ID='W C', XB=125.25,126.0,9.0,9.25,-0.25,5.0, SURF_ID='BETON'/ 
&OBST ID='W C', XB=125.75,126.5,8.75,9.0,-0.25,5.0, SURF_ID='BETON'/ 
&OBST ID='Obstruction #17', XB=-0.25,165.25,-0.5,55.75,-0.25,0.0, COLOR='INVISIBLE', SURF_ID='BETON'/ 
&OBST ID='Obstruction #18', XB=-0.25,165.25,-0.5,55.75,4.75,5.5, COLOR='INVISIBLE', SURF_ID='BETON'/ 