&MESH IJK=40, 1, 20, XB=-3.2, -2.8, -0.01, 0.01, -0.1, 0.1, MULT_ID='mesh' /
&MULT ID='mesh', DX=0.40, DY=0.02, DZ=0.20, I_UPPER=15, J_UPPER=0, K_UPPER=0 /
