&MESH IJK=80, 1, 20, XB=-3.2, -2.4, -0.01, 0.01, -0.1, 0.1, MULT_ID='mesh' /
&MULT ID='mesh', DX=0.80, DY=0.02, DZ=0.20, I_UPPER=7, J_UPPER=0, K_UPPER=0 /
